Version 4
SHEET 1 1340 680
WIRE 736 -80 64 -80
WIRE 96 -16 -128 -16
WIRE -128 16 -128 -16
WIRE 96 16 96 -16
WIRE 128 16 96 16
WIRE 96 48 96 16
WIRE 128 48 96 48
WIRE 96 80 96 48
WIRE 128 80 96 80
WIRE -128 112 -128 96
WIRE 96 112 96 80
WIRE 128 112 96 112
WIRE -16 144 -192 144
WIRE 64 144 64 -80
WIRE 64 144 -16 144
WIRE 128 144 64 144
WIRE 160 144 128 144
WIRE 736 144 736 -80
WIRE 800 144 736 144
WIRE 928 144 880 144
WIRE 960 144 928 144
WIRE -192 176 -192 144
WIRE 800 176 416 176
WIRE 928 176 880 176
WIRE 960 176 928 176
WIRE 800 208 608 208
WIRE 928 208 880 208
WIRE 960 208 928 208
WIRE 368 240 352 240
WIRE 432 240 368 240
WIRE 800 240 768 240
WIRE 928 240 880 240
WIRE 960 240 928 240
WIRE 560 256 544 256
WIRE 608 256 608 208
WIRE 608 256 560 256
WIRE 368 272 352 272
WIRE 400 272 368 272
WIRE 736 272 720 272
WIRE 768 272 768 240
WIRE 768 272 736 272
WIRE -192 304 -192 256
WIRE 368 304 352 304
WIRE 416 304 416 176
WIRE 416 304 368 304
WIRE 432 304 432 272
WIRE 432 304 416 304
WIRE 400 368 400 272
WIRE 448 368 400 368
WIRE 576 368 560 368
WIRE 608 368 608 288
WIRE 608 368 576 368
FLAG -192 304 0
FLAG -128 112 0
FLAG -16 144 CLOCK
FLAG 368 240 QA
FLAG 368 272 QB
FLAG 368 304 QC
FLAG 576 368 QB!
FLAG 560 256 HELP
FLAG 928 144 CLOCKx
FLAG 736 272 BYE
FLAG 928 240 BYEx
FLAG 928 176 QCx
FLAG 928 208 HELPx
SYMBOL voltage -128 0 R0
WINDOW 123 0 0 Left 2
WINDOW 39 0 0 Left 2
SYMATTR InstName V2
SYMATTR Value 5
SYMBOL 74HCT\\74hct161 240 -64 R0
SYMATTR InstName U1
SYMBOL voltage -192 160 R0
WINDOW 123 0 0 Left 2
WINDOW 39 0 0 Left 2
SYMATTR InstName V1
SYMATTR Value PULSE(0 5 0 1n 1n 0.5m 1m 18)
SYMBOL 74HCT\\74hct00 480 192 R0
SYMATTR InstName U2A
SYMBOL 74HCT\\74hct04 496 304 R0
SYMATTR InstName U3A
SYMBOL 74HCT\\74hct00 656 208 R0
SYMATTR InstName U2B
SYMBOL Digital\\dview10 816 288 R0
SYMATTR InstName Display
TEXT -272 472 Left 2 !.tran 0 16m 7m
TEXT 456 16 Left 2 !.lib 74HCT.lib
TEXT 456 48 Left 2 !.lib dview.lib
