Version 4
SHEET 1 880 852
WIRE -1024 -128 -1088 -128
WIRE -432 -128 -1024 -128
WIRE -832 -112 -832 -288
WIRE -832 -112 -976 -112
WIRE -832 -64 -832 -112
WIRE -1024 16 -1024 -128
WIRE -928 16 -1024 16
WIRE -432 32 -704 32
WIRE -1024 48 -1088 48
WIRE -928 48 -1024 48
WIRE -976 192 -976 -112
WIRE -832 192 -976 192
WIRE -1024 272 -1024 48
WIRE -928 272 -1024 272
WIRE -432 288 -704 288
WIRE -928 304 -1088 304
WIRE 656 832 656 800
FLAG -1088 -128 VIN2
IOPIN -1088 -128 In
FLAG -832 -288 VDD
IOPIN -832 -288 In
FLAG 736 704 VOUT
IOPIN 736 704 Out
FLAG 656 832 0
FLAG -1088 48 VIN1
IOPIN -1088 48 In
FLAG -1088 304 VIN0
IOPIN -1088 304 In
FLAG -432 -128 OUT2
IOPIN -432 -128 Out
FLAG -432 32 OUT1
IOPIN -432 32 Out
FLAG -432 288 OUT0
IOPIN -432 288 Out
SYMBOL xor -832 32 R0
SYMATTR InstName X1
SYMBOL xor -832 288 R0
SYMATTR InstName X2
TEXT -1152 -280 Left 2 !.param T_SIZE=1
