Version 4
SHEET 1 880 680
WIRE -16 16 -16 -48
WIRE 64 16 -16 16
WIRE -992 32 -1056 32
WIRE -928 32 -992 32
WIRE -1008 48 -1152 48
WIRE -928 48 -1008 48
WIRE 64 48 -864 48
WIRE -1040 64 -1056 64
WIRE -928 64 -1040 64
WIRE -1072 80 -1152 80
WIRE -928 80 -1072 80
WIRE -928 96 -976 96
WIRE -976 112 -976 96
WIRE -992 176 -992 32
WIRE -672 176 -992 176
WIRE -1008 240 -1008 48
WIRE -672 240 -1008 240
WIRE -1040 304 -1040 64
WIRE -672 304 -1040 304
WIRE -1072 368 -1072 80
WIRE -672 368 -1072 368
FLAG -976 112 0
FLAG -16 -48 0
FLAG -1056 32 X10
IOPIN -1056 32 In
FLAG -1152 48 X11
IOPIN -1152 48 In
FLAG -1056 64 X12
IOPIN -1056 64 In
FLAG -1152 80 X13
IOPIN -1152 80 In
SYMBOL 74HCT\\74hct157 160 -48 R0
SYMATTR InstName U1
SYMBOL Digital\\or -896 0 R0
SYMATTR InstName A1
SYMBOL Digital\\inv -672 112 R0
SYMATTR InstName A2
SYMBOL Digital\\inv -672 176 R0
SYMATTR InstName A3
SYMBOL Digital\\inv -672 240 R0
SYMATTR InstName A4
SYMBOL Digital\\inv -672 304 R0
SYMATTR InstName A5
