Version 4
SHEET 1 880 820
WIRE -1088 96 -1088 32
WIRE -912 96 -1088 96
WIRE -96 128 -608 128
WIRE -96 160 -560 160
WIRE -1008 176 -1280 176
WIRE -608 192 -608 128
WIRE -608 192 -784 192
WIRE -96 192 -512 192
WIRE -1152 208 -1152 32
WIRE -1008 208 -1152 208
WIRE -96 224 -480 224
WIRE -1088 272 -1088 96
WIRE -896 272 -1088 272
WIRE -96 288 -448 288
WIRE -992 352 -1280 352
WIRE -560 368 -560 160
WIRE -560 368 -768 368
WIRE -1152 384 -1152 208
WIRE -992 384 -1152 384
WIRE -1088 448 -1088 272
WIRE -896 448 -1088 448
WIRE -992 528 -1280 528
WIRE -512 544 -512 192
WIRE -512 544 -768 544
WIRE -1152 560 -1152 384
WIRE -992 560 -1152 560
WIRE -1088 640 -1088 448
WIRE -896 640 -1088 640
WIRE -992 720 -1280 720
WIRE -480 736 -480 224
WIRE -480 736 -768 736
WIRE -1152 752 -1152 560
WIRE -992 752 -1152 752
WIRE -1152 816 -1152 752
WIRE -448 816 -448 288
WIRE -448 816 -1152 816
FLAG -1152 32 SUB
IOPIN -1152 32 In
FLAG -1280 176 B0
IOPIN -1280 176 In
FLAG -1280 352 B1
IOPIN -1280 352 In
FLAG -1280 528 B2
IOPIN -1280 528 In
FLAG -1280 720 B3
IOPIN -1280 720 In
FLAG -96 -32 A0
IOPIN -96 -32 In
FLAG -96 0 A1
IOPIN -96 0 In
FLAG -96 32 A2
IOPIN -96 32 In
FLAG -96 64 A3
IOPIN -96 64 In
FLAG 128 64 R0
IOPIN 128 64 Out
FLAG 128 96 R1
IOPIN 128 96 Out
FLAG 128 128 R2
IOPIN 128 128 Out
FLAG 128 160 R3
IOPIN 128 160 Out
FLAG -1088 32 VDD
IOPIN -1088 32 In
SYMBOL xor -912 192 R0
SYMATTR InstName X1
SYMBOL xor -896 368 R0
SYMATTR InstName X2
SYMBOL xor -896 544 R0
SYMATTR InstName X3
SYMBOL xor -896 736 R0
SYMATTR InstName X4
SYMBOL 74HCT\\74hct283.i 16 -96 R0
SYMATTR InstName U1
SYMATTR SpiceLine VCC=1  SPEED=0.001  TRIPDT=1e-11
