Version 4
SHEET 1 4012 680
WIRE 3424 -1424 272 -1424
WIRE 3840 -1424 3760 -1424
WIRE 3936 -1424 3840 -1424
WIRE 3840 -1376 3840 -1424
WIRE 3936 -1360 3936 -1424
WIRE 3840 -1264 3840 -1296
WIRE 3936 -1264 3936 -1296
WIRE 3424 -1200 1152 -1200
WIRE 3840 -1200 3760 -1200
WIRE 3936 -1200 3840 -1200
WIRE 3840 -1152 3840 -1200
WIRE 3936 -1136 3936 -1200
WIRE 3840 -1040 3840 -1072
WIRE 3936 -1040 3936 -1072
WIRE 3424 -944 1984 -944
WIRE 3840 -944 3760 -944
WIRE 3936 -944 3840 -944
WIRE 3840 -896 3840 -944
WIRE 3936 -880 3936 -944
WIRE 3840 -784 3840 -816
WIRE 3936 -784 3936 -816
WIRE 3424 -480 2832 -480
WIRE 3840 -480 3760 -480
WIRE 3936 -480 3840 -480
WIRE 3840 -432 3840 -480
WIRE 3936 -416 3936 -480
WIRE 3840 -320 3840 -352
WIRE 3936 -320 3936 -352
WIRE 2704 -256 -480 -256
WIRE 2016 -192 -448 -192
WIRE 1200 -112 -416 -112
WIRE 1152 -80 1152 -1200
WIRE 240 -64 -384 -64
WIRE 272 -32 272 -1424
WIRE 1984 -32 1984 -944
WIRE 2832 -32 2832 -480
WIRE 400 0 -48 0
WIRE 1216 0 400 0
WIRE 2032 0 1216 0
WIRE -800 96 -832 96
WIRE 400 96 400 0
WIRE 1216 96 1216 0
WIRE 2032 96 2032 0
WIRE -800 112 -800 96
WIRE -224 112 -800 112
WIRE -48 112 -48 0
WIRE -48 112 -224 112
WIRE 0 112 -48 112
WIRE 240 112 240 -64
WIRE 240 112 192 112
WIRE 624 112 512 112
WIRE 896 112 784 112
WIRE 1200 112 1200 -112
WIRE 1200 112 1088 112
WIRE 1456 112 1328 112
WIRE 1696 112 1600 112
WIRE 2016 112 2016 -192
WIRE 2016 112 1888 112
WIRE 2288 112 2144 112
WIRE 2512 112 2416 112
WIRE 2704 112 2704 -256
WIRE 624 128 560 128
WIRE 784 128 784 112
WIRE 784 128 688 128
WIRE 1456 128 1376 128
WIRE 1600 128 1600 112
WIRE 1600 128 1520 128
WIRE 2288 128 2192 128
WIRE 2416 128 2416 112
WIRE 2416 128 2352 128
WIRE 0 160 -48 160
WIRE 272 160 272 -32
WIRE 272 160 192 160
WIRE 896 160 848 160
WIRE 1152 160 1152 -80
WIRE 1152 160 1088 160
WIRE 1200 160 1200 112
WIRE 1376 160 1376 128
WIRE 1376 160 1200 160
WIRE 1696 160 1648 160
WIRE 1984 160 1984 -32
WIRE 1984 160 1888 160
WIRE 2016 160 2016 112
WIRE 2192 160 2192 128
WIRE 2192 160 2016 160
WIRE 2512 160 2464 160
WIRE 2832 160 2832 -32
WIRE 2832 160 2704 160
WIRE 240 176 240 112
WIRE 560 176 560 128
WIRE 560 176 240 176
WIRE -1168 208 -1216 208
WIRE -832 208 -832 96
WIRE -1216 272 -1216 208
WIRE -384 272 -384 -64
WIRE -336 272 -384 272
WIRE -416 288 -416 -112
WIRE -336 288 -416 288
WIRE -224 288 -272 288
WIRE -176 288 -224 288
WIRE -128 288 -176 288
WIRE 0 288 0 208
WIRE 0 288 -64 288
WIRE 848 288 848 160
WIRE 848 288 0 288
WIRE 1648 288 1648 160
WIRE 1648 288 848 288
WIRE 2512 288 2512 208
WIRE 2512 288 1648 288
WIRE -448 304 -448 -192
WIRE -336 304 -448 304
WIRE -480 320 -480 -256
WIRE -336 320 -480 320
WIRE -48 368 -48 160
WIRE -48 368 -224 368
WIRE 896 368 896 208
WIRE 896 368 -48 368
WIRE 1696 368 1696 208
WIRE 1696 368 896 368
WIRE 2464 368 2464 160
WIRE 2464 368 1696 368
WIRE -1216 384 -1216 352
WIRE -176 432 -176 288
WIRE 400 432 400 128
WIRE 400 432 -176 432
WIRE 1216 432 1216 128
WIRE 1216 432 400 432
WIRE 2032 432 2032 128
WIRE 2032 432 1216 432
FLAG -224 368 VDD
FLAG -224 288 RESET
FLAG -224 112 SRC
FLAG 272 -32 R0
FLAG 1152 -80 R1
FLAG 1984 -32 R2
FLAG 2832 -32 R3
FLAG -1216 384 0
FLAG -1024 144 VDD
FLAG 3840 -1264 0
FLAG 3936 -1264 0
FLAG 3568 -1488 VDD
FLAG 3840 -1040 0
FLAG 3936 -1040 0
FLAG 3568 -1264 VDD
FLAG 3840 -784 0
FLAG 3936 -784 0
FLAG 3568 -1008 VDD
FLAG 3840 -320 0
FLAG 3936 -320 0
FLAG 3568 -544 VDD
SYMBOL jktd 96 160 R0
SYMATTR InstName X1
SYMBOL jktd 992 160 R0
SYMATTR InstName X2
SYMBOL jktd 1792 160 R0
SYMATTR InstName X3
SYMBOL jktd 2608 160 R0
SYMATTR InstName X4
SYMBOL Digital\\inv -128 224 R0
SYMATTR InstName A1
SYMBOL 74HCT\\74hct08 448 48 R0
SYMATTR InstName U1
SYMATTR SpiceLine VCC=1  SPEED=0.001  TRIPDT=1e-11
SYMBOL 74HCT\\74hct08 1264 48 R0
SYMATTR InstName U4
SYMATTR SpiceLine VCC=1  SPEED=0.001  TRIPDT=1e-11
SYMBOL 74HCT\\74hct08 2080 48 R0
SYMATTR InstName U7
SYMATTR SpiceLine VCC=1  SPEED=0.001  TRIPDT=1e-11
SYMBOL Digital\\xor 672 80 R0
SYMATTR InstName A2
SYMBOL Digital\\xor 1504 80 R0
SYMATTR InstName A3
SYMBOL Digital\\xor 2336 80 R0
SYMATTR InstName A4
SYMBOL Digital\\and -304 240 R0
SYMATTR InstName A5
SYMBOL voltage -1216 256 R0
WINDOW 123 0 0 Left 2
WINDOW 39 0 0 Left 2
SYMATTR InstName V1
SYMATTR Value PULSE(0 1 8n 10p 10p 8n 16n)
SYMBOL inverter -1040 208 R0
SYMATTR InstName X5
SYMBOL res 3824 -1392 R0
SYMATTR InstName R1
SYMATTR Value 100k
SYMBOL cap 3920 -1360 R0
SYMATTR InstName C1
SYMATTR Value 100f
SYMBOL inverter 3552 -1424 R0
SYMATTR InstName X6
SYMBOL res 3824 -1168 R0
SYMATTR InstName R2
SYMATTR Value 100k
SYMBOL cap 3920 -1136 R0
SYMATTR InstName C2
SYMATTR Value 100f
SYMBOL inverter 3552 -1200 R0
SYMATTR InstName X7
SYMBOL res 3824 -912 R0
SYMATTR InstName R3
SYMATTR Value 100k
SYMBOL cap 3920 -880 R0
SYMATTR InstName C3
SYMATTR Value 100f
SYMBOL inverter 3552 -944 R0
SYMATTR InstName X8
SYMBOL res 3824 -448 R0
SYMATTR InstName R4
SYMATTR Value 100k
SYMBOL cap 3920 -416 R0
SYMATTR InstName C4
SYMATTR Value 100f
SYMBOL inverter 3552 -480 R0
SYMATTR InstName X9
