Version 4
SHEET 1 4012 680
WIRE 3424 -2032 272 -2032
WIRE 3840 -2032 3760 -2032
WIRE 3936 -2032 3840 -2032
WIRE 3840 -1984 3840 -2032
WIRE 3936 -1968 3936 -2032
WIRE 3840 -1872 3840 -1904
WIRE 3936 -1872 3936 -1904
WIRE 3424 -1520 1152 -1520
WIRE 3840 -1520 3760 -1520
WIRE 3936 -1520 3840 -1520
WIRE 3840 -1472 3840 -1520
WIRE 3936 -1456 3936 -1520
WIRE 3840 -1360 3840 -1392
WIRE 3936 -1360 3936 -1392
WIRE 3424 -944 1984 -944
WIRE 3840 -944 3760 -944
WIRE 3936 -944 3840 -944
WIRE 400 -912 304 -912
WIRE 400 -896 320 -896
WIRE 576 -896 464 -896
WIRE 1312 -896 1264 -896
WIRE 1728 -896 1648 -896
WIRE 1824 -896 1728 -896
WIRE 3840 -896 3840 -944
WIRE 400 -880 352 -880
WIRE 3936 -880 3936 -944
WIRE 400 -864 368 -864
WIRE 576 -848 528 -848
WIRE 1264 -848 1264 -896
WIRE 1264 -848 768 -848
WIRE 1728 -848 1728 -896
WIRE 1824 -832 1824 -896
WIRE 576 -800 480 -800
WIRE 3840 -784 3840 -816
WIRE 3936 -784 3936 -816
WIRE 1728 -736 1728 -768
WIRE 1824 -736 1824 -768
WIRE 368 -720 368 -864
WIRE 2896 -720 368 -720
WIRE 352 -640 352 -880
WIRE 2080 -640 352 -640
WIRE 320 -560 320 -896
WIRE 1248 -560 320 -560
WIRE 3440 -480 2832 -480
WIRE 3856 -480 3776 -480
WIRE 3952 -480 3856 -480
WIRE 3856 -432 3856 -480
WIRE 3952 -416 3952 -480
WIRE 3856 -320 3856 -352
WIRE 3952 -320 3952 -352
WIRE 1152 -80 1152 -1520
WIRE 3328 -80 3312 -80
WIRE 3744 -80 3664 -80
WIRE 3840 -80 3744 -80
WIRE 272 -32 272 -2032
WIRE 1984 -32 1984 -944
WIRE 2832 -32 2832 -480
WIRE 3744 -32 3744 -80
WIRE 3840 -16 3840 -80
WIRE 3744 80 3744 48
WIRE 3840 80 3840 48
WIRE -976 112 -1024 112
WIRE -224 112 -640 112
WIRE 0 112 -224 112
WIRE 304 112 304 -912
WIRE 304 112 192 112
WIRE 896 112 304 112
WIRE 1248 112 1248 -560
WIRE 1248 112 1088 112
WIRE 1696 112 1248 112
WIRE 2080 112 2080 -640
WIRE 2080 112 1888 112
WIRE 2416 112 2080 112
WIRE 2512 112 2416 112
WIRE 2896 112 2896 -720
WIRE 2896 112 2704 112
WIRE 3312 112 3312 -80
WIRE 3312 112 2896 112
WIRE 0 160 -80 160
WIRE 272 160 272 -32
WIRE 272 160 192 160
WIRE 896 160 800 160
WIRE 1152 160 1152 -80
WIRE 1152 160 1088 160
WIRE 1696 160 1568 160
WIRE 1984 160 1984 -32
WIRE 1984 160 1888 160
WIRE 2512 160 2416 160
WIRE 2832 160 2832 -32
WIRE 2832 160 2704 160
WIRE -1024 176 -1024 112
WIRE -1024 288 -1024 256
WIRE -80 304 -80 160
WIRE -80 304 -208 304
WIRE 0 304 0 208
WIRE 0 304 -80 304
WIRE 480 304 480 -800
WIRE 480 304 0 304
WIRE 528 304 528 -848
WIRE 528 304 480 304
WIRE 800 304 800 160
WIRE 800 304 528 304
WIRE 896 304 896 208
WIRE 896 304 800 304
WIRE 1568 304 1568 160
WIRE 1568 304 896 304
WIRE 1696 304 1696 208
WIRE 1696 304 1568 304
WIRE 2416 304 2416 160
WIRE 2416 304 1696 304
WIRE 2512 304 2512 208
WIRE 2512 304 2416 304
WIRE 3280 432 3280 320
WIRE 3280 544 3280 512
FLAG -224 112 SRC
FLAG 272 -32 R0
FLAG 1152 -80 R1
FLAG 1984 -32 R2
FLAG 2832 -32 R3
FLAG -1024 288 0
FLAG -832 48 VDD
FLAG 3840 -1872 0
FLAG 3936 -1872 0
FLAG 3568 -2096 VDD
FLAG 3840 -1360 0
FLAG 3936 -1360 0
FLAG 3568 -1584 VDD
FLAG 3840 -784 0
FLAG 3936 -784 0
FLAG 3568 -1008 VDD
FLAG 3856 -320 0
FLAG 3952 -320 0
FLAG 3584 -544 VDD
FLAG 3280 320 VDD
FLAG 3280 544 0
FLAG 2416 112 CLAST
FLAG -208 304 VDD
FLAG 3744 80 0
FLAG 3840 80 0
FLAG 3472 -144 VDD
FLAG 1728 -736 0
FLAG 1824 -736 0
FLAG 1456 -960 VDD
SYMBOL jktd 96 160 R0
SYMATTR InstName X1
SYMBOL jktd 992 160 R0
SYMATTR InstName X2
SYMBOL jktd 1792 160 R0
SYMATTR InstName X3
SYMBOL jktd 2608 160 R0
SYMATTR InstName X4
SYMBOL voltage -1024 160 R0
WINDOW 123 0 0 Left 2
WINDOW 39 0 0 Left 2
SYMATTR InstName V1
SYMATTR Value PULSE(0 1 2n 10p 10p 2n 4n)
SYMBOL inverter -848 112 R0
SYMATTR InstName X5
SYMBOL res 3824 -2000 R0
SYMATTR InstName R1
SYMATTR Value 100k
SYMBOL cap 3920 -1968 R0
SYMATTR InstName C1
SYMATTR Value 100f
SYMBOL inverter 3552 -2032 R0
SYMATTR InstName X6
SYMBOL res 3824 -1488 R0
SYMATTR InstName R2
SYMATTR Value 100k
SYMBOL cap 3920 -1456 R0
SYMATTR InstName C2
SYMATTR Value 100f
SYMBOL inverter 3552 -1520 R0
SYMATTR InstName X7
SYMBOL res 3824 -912 R0
SYMATTR InstName R3
SYMATTR Value 100k
SYMBOL cap 3920 -880 R0
SYMATTR InstName C3
SYMATTR Value 100f
SYMBOL inverter 3552 -944 R0
SYMATTR InstName X8
SYMBOL res 3840 -448 R0
SYMATTR InstName R4
SYMATTR Value 100k
SYMBOL cap 3936 -416 R0
SYMATTR InstName C4
SYMATTR Value 100f
SYMBOL inverter 3568 -480 R0
SYMATTR InstName X9
SYMBOL voltage 3280 416 R0
WINDOW 123 0 0 Left 2
WINDOW 39 0 0 Left 2
SYMATTR InstName VDD1
SYMATTR Value 1
SYMBOL res 3728 -48 R0
SYMATTR InstName R5
SYMATTR Value 100k
SYMBOL cap 3824 -16 R0
SYMATTR InstName C5
SYMATTR Value 100f
SYMBOL inverter 3456 -80 R0
SYMATTR InstName X10
SYMBOL jktd 672 -848 R0
SYMATTR InstName X11
SYMBOL res 1712 -864 R0
SYMATTR InstName R6
SYMATTR Value 100k
SYMBOL cap 1808 -832 R0
SYMATTR InstName C6
SYMATTR Value 100f
SYMBOL inverter 1440 -896 R0
SYMATTR InstName X12
SYMBOL Digital\\and 432 -944 R0
SYMATTR InstName A1
TEXT -536 -1776 Left 2 !.tran 0 70n 0 1p
TEXT -544 -1816 Left 2 !.include 90nm_bulk.txt
TEXT -528 -1744 Left 2 !.include 74hct.lib
