Version 4
SHEET 1 4012 724
WIRE 448 -368 128 -368
WIRE 864 -368 784 -368
WIRE 960 -368 864 -368
WIRE 864 -320 864 -368
WIRE 960 -304 960 -368
WIRE 864 -208 864 -240
WIRE 960 -208 960 -240
WIRE 448 -112 272 -112
WIRE 864 -112 784 -112
WIRE 960 -112 864 -112
WIRE 864 -64 864 -112
WIRE 960 -48 960 -112
WIRE 272 -16 272 -112
WIRE 128 32 128 -368
WIRE 864 48 864 16
WIRE 960 48 960 16
WIRE 528 208 448 208
WIRE 944 208 864 208
WIRE 1040 208 944 208
WIRE -800 224 -800 112
WIRE 944 256 944 208
WIRE 1040 272 1040 208
WIRE 448 320 448 208
WIRE -800 336 -800 304
WIRE 944 368 944 336
WIRE 1040 368 1040 336
WIRE 656 480 -160 480
WIRE 720 480 656 480
WIRE 1136 480 1056 480
WIRE 1232 480 1136 480
WIRE -992 528 -1040 528
WIRE -512 528 -656 528
WIRE -336 528 -512 528
WIRE 448 528 448 320
WIRE 448 528 -160 528
WIRE 1136 528 1136 480
WIRE 1232 544 1232 480
WIRE -336 576 -416 576
WIRE 272 576 272 -16
WIRE 272 576 -160 576
WIRE -1040 592 -1040 528
WIRE 128 624 128 32
WIRE 128 624 -160 624
WIRE 1136 640 1136 608
WIRE 1232 640 1232 608
WIRE -1040 704 -1040 672
FLAG -512 528 CLK
FLAG -1040 704 0
FLAG -848 464 VDD
FLAG 864 -208 0
FLAG 960 -208 0
FLAG 592 -432 VDD
FLAG 864 48 0
FLAG 960 48 0
FLAG 592 -176 VDD
FLAG 944 368 0
FLAG 1040 368 0
FLAG 672 144 VDD
FLAG 1136 640 0
FLAG 1232 640 0
FLAG 864 416 VDD
FLAG -800 112 VDD
FLAG -800 336 0
FLAG 128 32 Q0
FLAG 272 -16 Q1
FLAG 448 320 Q2
FLAG 656 480 Q3
FLAG -416 576 VDD
SYMBOL voltage -1040 576 R0
WINDOW 123 0 0 Left 2
WINDOW 39 0 0 Left 2
SYMATTR InstName V1
SYMATTR Value PULSE(0 1 2n 10p 10p 2n 4n)
SYMBOL inverter -864 528 R0
SYMATTR InstName X5
SYMBOL res 848 -336 R0
SYMATTR InstName R1
SYMATTR Value 100k
SYMBOL cap 944 -304 R0
SYMATTR InstName C1
SYMATTR Value 100f
SYMBOL inverter 576 -368 R0
SYMATTR InstName X6
SYMBOL res 848 -80 R0
SYMATTR InstName R2
SYMATTR Value 100k
SYMBOL cap 944 -48 R0
SYMATTR InstName C2
SYMATTR Value 100f
SYMBOL inverter 576 -112 R0
SYMATTR InstName X7
SYMBOL res 928 240 R0
SYMATTR InstName R3
SYMATTR Value 100k
SYMBOL cap 1024 272 R0
SYMATTR InstName C3
SYMATTR Value 100f
SYMBOL inverter 656 208 R0
SYMATTR InstName X8
SYMBOL res 1120 512 R0
SYMATTR InstName R4
SYMATTR Value 100k
SYMBOL cap 1216 544 R0
SYMATTR InstName C4
SYMATTR Value 100f
SYMBOL inverter 848 480 R0
SYMATTR InstName X9
SYMBOL voltage -800 208 R0
WINDOW 123 0 0 Left 2
WINDOW 39 0 0 Left 2
SYMATTR InstName VDD1
SYMATTR Value 1
SYMBOL decounter -240 544 R0
SYMATTR InstName X1
TEXT -536 -1776 Left 2 !.tran 0 160n 0 1p
TEXT -544 -1816 Left 2 !.include 90nm_bulk.txt
TEXT -528 -1744 Left 2 !.include 74hct.lib
