Version 4
SHEET 1 4012 724
WIRE 2048 -528 1984 -528
WIRE 352 -480 336 -480
WIRE 1296 -480 1216 -480
WIRE 336 -384 336 -480
WIRE 1216 -384 1216 -480
WIRE 2064 -352 272 -352
WIRE 1920 -256 1152 -256
WIRE 2912 -128 464 -128
WIRE 2912 -96 2912 -128
WIRE 3008 -96 2912 -96
WIRE 3008 -80 1264 -80
WIRE 3008 -64 2112 -64
WIRE 3008 -48 2928 -48
WIRE 3136 -48 3072 -48
WIRE 1984 -32 1984 -528
WIRE 2832 -32 2832 -240
WIRE 464 80 464 -128
WIRE 1312 80 464 80
WIRE 0 112 -128 112
WIRE 272 112 272 -352
WIRE 272 112 192 112
WIRE 464 112 464 80
WIRE 464 112 272 112
WIRE 896 112 768 112
WIRE 1152 112 1152 -256
WIRE 1152 112 1088 112
WIRE 1264 112 1264 -80
WIRE 1264 112 1152 112
WIRE 1696 112 1536 112
WIRE 2112 112 2112 -64
WIRE 2112 112 1888 112
WIRE 2512 112 2384 112
WIRE 2928 112 2928 -48
WIRE 2928 112 2704 112
WIRE 464 144 464 112
WIRE 608 144 464 144
WIRE 1264 144 1264 112
WIRE 1424 144 1264 144
WIRE 2112 144 2112 112
WIRE 2272 144 2112 144
WIRE 0 160 -80 160
WIRE 336 160 336 -384
WIRE 336 160 192 160
WIRE 608 160 560 160
WIRE 800 160 672 160
WIRE 896 160 800 160
WIRE 1216 160 1216 -384
WIRE 1216 160 1088 160
WIRE 1424 160 1376 160
WIRE 1616 160 1488 160
WIRE 1696 160 1616 160
WIRE 2272 160 2208 160
WIRE 2448 160 2336 160
WIRE 2512 160 2448 160
WIRE 2832 160 2832 -32
WIRE 2832 160 2704 160
WIRE 608 176 528 176
WIRE 1312 176 1312 80
WIRE 1424 176 1312 176
WIRE 1920 176 1920 -256
WIRE 2272 176 1920 176
WIRE 1424 192 1312 192
WIRE 2064 192 2064 -352
WIRE 2272 192 2064 192
WIRE 800 208 800 160
WIRE 896 208 800 208
WIRE 1616 208 1616 160
WIRE 1696 208 1616 208
WIRE 2448 208 2448 160
WIRE 2512 208 2448 208
WIRE 1888 224 1888 160
WIRE 1984 224 1984 -32
WIRE 1984 224 1888 224
WIRE -80 304 -80 160
WIRE -80 304 -656 304
WIRE 0 304 0 208
WIRE 0 304 -80 304
WIRE -512 400 -656 400
WIRE -128 400 -128 112
WIRE -128 400 -512 400
WIRE 560 400 560 160
WIRE 560 400 -128 400
WIRE 768 400 768 112
WIRE 768 400 560 400
WIRE 1376 400 1376 160
WIRE 1376 400 768 400
WIRE 1536 400 1536 112
WIRE 1536 400 1376 400
WIRE 2208 400 2208 160
WIRE 2208 400 1536 400
WIRE 2384 400 2384 112
WIRE 2384 400 2208 400
WIRE 528 448 528 176
WIRE 1312 448 1312 192
WIRE 1312 448 528 448
WIRE 3136 448 3136 -48
WIRE 3136 448 1312 448
FLAG -512 400 CLK
FLAG 1984 -32 Q2
FLAG 2832 -32 Q3
FLAG 336 -384 Q0
FLAG 1216 -384 Q1
FLAG -656 400 CLK
IOPIN -656 400 In
FLAG -656 304 VDD
IOPIN -656 304 In
FLAG 2832 -240 Q3
IOPIN 2832 -240 Out
FLAG 2048 -528 Q2
IOPIN 2048 -528 Out
FLAG 1296 -480 Q1
IOPIN 1296 -480 Out
FLAG 352 -480 Q0
IOPIN 352 -480 Out
SYMBOL jktd 96 160 R0
SYMATTR InstName X1
SYMBOL jktd 992 160 R0
SYMATTR InstName X2
SYMBOL jktd 1792 160 R0
SYMATTR InstName X3
SYMBOL jktd 2608 160 R0
SYMATTR InstName X4
SYMBOL Digital\\and 640 112 R0
SYMATTR InstName A1
SYMBOL Digital\\and 1456 112 R0
SYMATTR InstName A2
SYMBOL Digital\\and 2304 112 R0
SYMATTR InstName A3
SYMBOL Digital\\and 3040 -128 R0
SYMATTR InstName A4
TEXT -544 -1816 Left 2 !.include 90nm_bulk.txt
TEXT -528 -1744 Left 2 !.include 74hct.lib
