Version 4
SHEET 1 1684 680
WIRE 0 112 -208 112
WIRE 384 112 192 112
WIRE 656 112 576 112
WIRE 768 112 656 112
WIRE 1184 112 960 112
WIRE 1680 112 1376 112
WIRE 0 160 -48 160
WIRE 240 160 240 -128
WIRE 240 160 192 160
WIRE 384 160 352 160
WIRE 624 160 624 -128
WIRE 624 160 576 160
WIRE 768 160 704 160
WIRE 1040 160 1040 -128
WIRE 1040 160 960 160
WIRE 1184 160 1152 160
WIRE 1440 160 1440 -128
WIRE 1440 160 1376 160
WIRE 0 256 0 208
WIRE 0 256 -208 256
WIRE 384 256 384 208
WIRE 384 256 0 256
WIRE 768 256 768 208
WIRE 768 256 384 256
WIRE 1184 256 1184 208
WIRE 1184 256 768 256
WIRE -48 288 -48 160
WIRE 352 288 352 160
WIRE 352 288 -48 288
WIRE 704 288 704 160
WIRE 704 288 352 288
WIRE 1152 288 1152 160
WIRE 1152 288 704 288
WIRE 240 304 240 160
WIRE 240 304 -48 304
WIRE 656 320 656 112
WIRE 656 320 -96 320
WIRE -48 352 -48 304
WIRE 0 352 -48 352
WIRE -96 368 -96 320
WIRE 0 368 -96 368
WIRE 192 368 160 368
WIRE 0 384 -96 384
WIRE 352 384 352 288
WIRE 352 384 304 384
WIRE 0 400 -80 400
WIRE 192 400 64 400
WIRE -80 464 -80 400
WIRE 1376 464 1376 160
WIRE 1376 464 -80 464
WIRE -96 480 -96 384
WIRE 1040 480 1040 160
WIRE 1040 480 -96 480
FLAG -208 256 VDD
FLAG 160 368 0
SYMBOL jktd 96 160 R0
SYMATTR InstName X1
SYMBOL jktd 480 160 R0
SYMATTR InstName X2
SYMBOL jktd 864 160 R0
SYMATTR InstName X3
SYMBOL jktd 1280 160 R0
SYMATTR InstName X4
SYMBOL Digital\\or 32 320 R0
SYMATTR InstName A1
SYMBOL 74HCT\\74hct02 240 320 R0
SYMATTR InstName U1
