Version 4
SHEET 1 880 680
WIRE -16 80 -16 16
WIRE -496 160 -624 160
WIRE -112 160 -160 160
WIRE 192 176 112 176
WIRE 608 176 528 176
WIRE 704 176 608 176
WIRE -112 192 -144 192
WIRE 608 224 608 176
WIRE 704 240 704 176
WIRE -480 304 -528 304
WIRE -144 304 -144 192
WIRE 608 336 608 304
WIRE 704 336 704 304
WIRE -624 352 -624 160
WIRE -528 368 -528 304
WIRE 304 384 304 272
WIRE -624 480 -624 432
WIRE -528 480 -528 448
WIRE 304 496 304 464
FLAG -16 16 VDD
FLAG 304 272 VDD
FLAG 304 496 0
FLAG -624 480 0
FLAG -528 480 0
FLAG 608 336 0
FLAG 704 336 0
FLAG -352 96 VDD
FLAG -336 240 VDD
FLAG 336 112 VDD
SYMBOL xor -16 176 R0
SYMATTR InstName X1
SYMBOL voltage 304 368 R0
WINDOW 123 0 0 Left 2
WINDOW 39 0 0 Left 2
SYMATTR InstName VDD1
SYMATTR Value 1
SYMBOL voltage -624 336 R0
WINDOW 123 0 0 Left 2
WINDOW 39 0 0 Left 2
SYMATTR InstName V2
SYMATTR Value PULSE(0 1 2n 10p 10p 2n 4n)
SYMBOL voltage -528 352 R0
WINDOW 123 0 0 Left 2
WINDOW 39 0 0 Left 2
SYMATTR InstName V1
SYMATTR Value PULSE(0 1 1n 10p 10p 2n 4n)
SYMBOL res 592 208 R0
SYMATTR InstName R1
SYMATTR Value 100k
SYMBOL cap 688 240 R0
SYMATTR InstName C1
SYMATTR Value 100f
SYMBOL inverter -368 160 R0
SYMATTR InstName X2
SYMBOL inverter 320 176 R0
SYMATTR InstName X3
SYMBOL inverter -352 304 R0
SYMATTR InstName X4
TEXT -672 16 Left 2 !.tran 0 10n 0 1p
TEXT -680 -24 Left 2 !.include 90nm_bulk.txt
