Version 4
SHEET 1 1204 680
WIRE 464 -400 160 -400
WIRE -368 -304 -1216 -304
WIRE -240 -304 -368 -304
WIRE 160 -288 160 -400
WIRE 160 -288 -128 -288
WIRE -240 -272 -304 -272
WIRE -368 -160 -368 -304
WIRE -128 -160 -368 -160
WIRE 880 -64 -800 -64
WIRE -800 32 -800 -64
WIRE -944 48 -1216 48
WIRE -672 48 -688 48
WIRE -800 64 -832 64
WIRE -944 80 -1008 80
WIRE -672 96 -672 48
WIRE -528 112 -560 112
WIRE -448 112 -528 112
WIRE -256 128 -336 128
WIRE -64 128 -256 128
WIRE -448 144 -480 144
WIRE 96 144 48 144
WIRE 160 144 96 144
WIRE 1120 144 1008 144
WIRE -800 160 -1216 160
WIRE -128 160 -128 -160
WIRE -64 160 -128 160
WIRE 288 160 272 160
WIRE 336 160 288 160
WIRE 384 160 336 160
WIRE 528 160 384 160
WIRE -672 176 -672 128
WIRE -672 176 -688 176
WIRE 160 176 112 176
WIRE 688 176 640 176
WIRE 752 176 688 176
WIRE 464 192 464 -400
WIRE 528 192 464 192
WIRE 880 192 880 -64
WIRE 880 192 864 192
WIRE 928 192 880 192
WIRE 1008 192 1008 144
WIRE 1008 192 928 192
WIRE 752 208 704 208
WIRE 288 256 288 160
WIRE 288 256 128 256
WIRE 112 272 112 176
WIRE 288 272 112 272
WIRE 1120 272 1024 272
WIRE 880 288 880 192
WIRE 880 288 720 288
WIRE 704 304 704 208
WIRE 880 304 704 304
WIRE 128 320 128 256
WIRE 160 320 128 320
WIRE -128 336 -128 160
WIRE -64 336 -128 336
WIRE 288 336 288 272
WIRE 288 336 272 336
WIRE 96 352 48 352
WIRE 160 352 96 352
WIRE 720 352 720 288
WIRE 752 352 720 352
WIRE -528 368 -528 112
WIRE -64 368 -528 368
WIRE 464 368 464 192
WIRE 528 368 464 368
WIRE 880 368 880 304
WIRE 880 368 864 368
WIRE 1024 368 1024 272
WIRE 1024 368 880 368
WIRE 384 384 384 160
WIRE 416 384 384 384
WIRE 688 384 640 384
WIRE 752 384 688 384
WIRE 416 416 368 416
WIRE -800 464 -800 192
WIRE 880 464 880 368
WIRE 880 464 -800 464
FLAG 96 352 S
FLAG 336 160 Q
FLAG 96 144 R
FLAG -480 144 0
FLAG -1008 80 0
FLAG -304 -272 0
FLAG -256 128 D
FLAG 688 384 S2
FLAG 928 192 Q2
FLAG 688 176 R2
FLAG 368 416 0
FLAG -1216 48 J
IOPIN -1216 48 In
FLAG -1216 160 K
IOPIN -1216 160 In
FLAG -1216 -304 C
IOPIN -1216 -304 In
FLAG 1120 144 Q
IOPIN 1120 144 Out
FLAG 1120 272 -Q
IOPIN 1120 272 Out
SYMBOL 74HCT\\74hct02 208 96 R0
SYMATTR InstName U1
SYMATTR SpiceLine VCC=1  SPEED=0.001  TRIPDT=1e-11
SYMBOL 74HCT\\74hct02 208 272 R0
SYMATTR InstName U2
SYMATTR SpiceLine VCC=1  SPEED=0.001  TRIPDT=1e-11
SYMBOL 74HCT\\74hct02 -16 80 R0
SYMATTR InstName U3
SYMATTR SpiceLine VCC=1  SPEED=0.001  TRIPDT=1e-11
SYMBOL 74HCT\\74hct02 -16 288 R0
SYMATTR InstName U4
SYMATTR SpiceLine VCC=1  SPEED=0.001  TRIPDT=1e-11
SYMBOL 74HCT\\74hct02 -400 64 R0
SYMATTR InstName U5
SYMATTR SpiceLine VCC=1  SPEED=0.001  TRIPDT=1e-11
SYMBOL 74HCT\\74hct02 -624 48 R0
SYMATTR InstName U6
SYMATTR SpiceLine VCC=1  SPEED=0.001  TRIPDT=1e-11
SYMBOL 74HCT\\74hct02 -752 -16 R0
SYMATTR InstName U7
SYMATTR SpiceLine VCC=1  SPEED=0.001  TRIPDT=1e-11
SYMBOL 74HCT\\74hct02 -752 112 R0
SYMATTR InstName U8
SYMATTR SpiceLine VCC=1  SPEED=0.001  TRIPDT=1e-11
SYMBOL 74HCT\\74hct02 -896 0 R0
SYMATTR InstName U9
SYMATTR SpiceLine VCC=1  SPEED=0.001  TRIPDT=1e-11
SYMBOL 74HCT\\74hct02 -192 -352 R0
SYMATTR InstName U10
SYMATTR SpiceLine VCC=1  SPEED=0.001  TRIPDT=1e-11
SYMBOL 74HCT\\74hct02 800 128 R0
SYMATTR InstName U11
SYMATTR SpiceLine VCC=1  SPEED=0.001  TRIPDT=1e-11
SYMBOL 74HCT\\74hct02 800 304 R0
SYMATTR InstName U12
SYMATTR SpiceLine VCC=1  SPEED=0.001  TRIPDT=1e-11
SYMBOL 74HCT\\74hct02 576 112 R0
SYMATTR InstName U13
SYMATTR SpiceLine VCC=1  SPEED=0.001  TRIPDT=1e-11
SYMBOL 74HCT\\74hct02 576 320 R0
SYMATTR InstName U14
SYMATTR SpiceLine VCC=1  SPEED=0.001  TRIPDT=1e-11
SYMBOL 74HCT\\74hct02 464 336 R0
SYMATTR InstName U15
SYMATTR SpiceLine VCC=1  SPEED=0.001  TRIPDT=1e-11
