Version 4
SHEET 1 900 680
WIRE 64 -848 -992 -848
WIRE 64 -816 48 -816
WIRE 592 -608 -448 -608
WIRE -448 -512 -448 -608
WIRE -592 -496 -992 -496
WIRE -320 -496 -336 -496
WIRE -448 -480 -480 -480
WIRE -592 -464 -656 -464
WIRE -320 -448 -320 -496
WIRE -176 -432 -208 -432
WIRE -96 -432 -176 -432
WIRE 96 -416 16 -416
WIRE 240 -416 96 -416
WIRE -96 -400 -128 -400
WIRE 400 -400 352 -400
WIRE 464 -400 400 -400
WIRE -448 -384 -992 -384
WIRE 176 -384 176 -832
WIRE 240 -384 176 -384
WIRE 592 -384 592 -608
WIRE 592 -384 576 -384
WIRE 640 -384 592 -384
WIRE 816 -384 640 -384
WIRE -320 -368 -320 -416
WIRE -320 -368 -336 -368
WIRE 464 -368 416 -368
WIRE 592 -288 592 -384
WIRE 592 -288 432 -288
WIRE 416 -272 416 -368
WIRE 592 -272 416 -272
WIRE 432 -224 432 -288
WIRE 464 -224 432 -224
WIRE 176 -208 176 -384
WIRE 240 -208 176 -208
WIRE 592 -208 592 -272
WIRE 592 -208 576 -208
WIRE 640 -208 592 -208
WIRE 816 -208 640 -208
WIRE 400 -192 352 -192
WIRE 464 -192 400 -192
WIRE -176 -176 -176 -432
WIRE 240 -176 -176 -176
WIRE -448 -112 -448 -352
WIRE 592 -112 592 -208
WIRE 592 -112 -448 -112
FLAG 400 -192 S
FLAG 640 -384 Q
FLAG 640 -208 -Q
FLAG 400 -400 R
FLAG -128 -400 0
FLAG -656 -464 0
FLAG 48 -816 0
FLAG 96 -416 D
FLAG -992 -848 C
IOPIN -992 -848 In
FLAG -992 -496 J
IOPIN -992 -496 In
FLAG -992 -384 K
IOPIN -992 -384 In
FLAG 816 -384 Q
IOPIN 816 -384 Out
FLAG 816 -208 -Q
IOPIN 816 -208 Out
SYMBOL 74HCT\\74hct02 512 -448 R0
SYMATTR InstName U1
SYMATTR SpiceLine VCC=1  SPEED=0.001  TRIPDT=1e-11
SYMBOL 74HCT\\74hct02 512 -272 R0
SYMATTR InstName U2
SYMATTR SpiceLine VCC=1  SPEED=0.001  TRIPDT=1e-11
SYMBOL 74HCT\\74hct02 288 -464 R0
SYMATTR InstName U3
SYMATTR SpiceLine VCC=1  SPEED=0.001  TRIPDT=1e-11
SYMBOL 74HCT\\74hct02 288 -256 R0
SYMATTR InstName U4
SYMATTR SpiceLine VCC=1  SPEED=0.001  TRIPDT=1e-11
SYMBOL 74HCT\\74hct02 -48 -480 R0
SYMATTR InstName U5
SYMATTR SpiceLine VCC=1  SPEED=0.001  TRIPDT=1e-11
SYMBOL 74HCT\\74hct02 -272 -496 R0
SYMATTR InstName U6
SYMATTR SpiceLine VCC=1  SPEED=0.001  TRIPDT=1e-11
SYMBOL 74HCT\\74hct02 -400 -560 R0
SYMATTR InstName U7
SYMATTR SpiceLine VCC=1  SPEED=0.001  TRIPDT=1e-11
SYMBOL 74HCT\\74hct02 -400 -432 R0
SYMATTR InstName U8
SYMATTR SpiceLine VCC=1  SPEED=0.001  TRIPDT=1e-11
SYMBOL 74HCT\\74hct02 -544 -544 R0
SYMATTR InstName U9
SYMATTR SpiceLine VCC=1  SPEED=0.001  TRIPDT=1e-11
SYMBOL 74HCT\\74hct02 112 -896 R0
SYMATTR InstName U10
SYMATTR SpiceLine VCC=1  SPEED=0.001  TRIPDT=1e-11
TEXT -1024 -1088 Left 2 !.include 74hct.lib
