Version 4
SHEET 1 880 936
WIRE -16 16 -16 -48
WIRE 64 16 -16 16
WIRE -1008 32 -1056 32
WIRE -928 32 -1008 32
WIRE -1024 48 -1152 48
WIRE -928 48 -1024 48
WIRE 64 48 -864 48
WIRE -1040 64 -1056 64
WIRE -928 64 -1040 64
WIRE -1056 80 -1152 80
WIRE -928 80 -1056 80
WIRE -928 96 -976 96
WIRE -912 112 -912 96
WIRE -848 128 -848 16
WIRE -816 128 -848 128
WIRE 64 128 -592 128
WIRE -976 144 -976 96
WIRE -816 144 -976 144
WIRE 64 160 -304 160
WIRE -976 176 -976 144
WIRE -816 176 -976 176
WIRE 64 192 -576 192
WIRE -976 208 -976 176
WIRE -816 208 -976 208
WIRE 64 224 -288 224
WIRE -976 240 -976 208
WIRE -816 240 -976 240
WIRE -592 240 -592 128
WIRE -976 256 -976 240
WIRE 64 256 -560 256
WIRE -576 272 -576 192
WIRE -576 272 -592 272
WIRE 64 288 -272 288
WIRE -1008 304 -1008 32
WIRE -816 304 -1008 304
WIRE -560 304 -560 256
WIRE -560 304 -592 304
WIRE 64 320 -544 320
WIRE -1024 336 -1024 48
WIRE -816 336 -1024 336
WIRE -544 336 -544 320
WIRE -544 336 -592 336
WIRE 64 352 -256 352
WIRE -1040 368 -1040 64
WIRE -816 368 -1040 368
WIRE -1056 400 -1056 80
WIRE -816 400 -1056 400
WIRE -848 528 -848 128
WIRE -816 528 -848 528
WIRE -1008 544 -1008 304
WIRE -816 544 -1008 544
WIRE -1024 576 -1024 336
WIRE -816 576 -1024 576
WIRE -1040 608 -1040 368
WIRE -816 608 -1040 608
WIRE -1056 640 -1056 400
WIRE -816 640 -1056 640
WIRE -304 640 -304 160
WIRE -304 640 -592 640
WIRE -288 672 -288 224
WIRE -288 672 -592 672
WIRE -272 704 -272 288
WIRE -272 704 -592 704
WIRE -256 736 -256 352
WIRE -256 736 -592 736
FLAG -16 -48 0
FLAG -1056 32 X10
IOPIN -1056 32 In
FLAG -1152 48 X11
IOPIN -1152 48 In
FLAG -1056 64 X12
IOPIN -1056 64 In
FLAG -1152 80 X13
IOPIN -1152 80 In
FLAG -816 464 VDD
IOPIN -816 464 In
FLAG -976 256 0
FLAG -816 704 X20
IOPIN -816 704 In
FLAG -816 736 X21
IOPIN -816 736 In
FLAG -816 768 X22
IOPIN -816 768 In
FLAG -816 800 X23
IOPIN -816 800 In
FLAG -816 864 VDD
IOPIN -816 864 In
FLAG 256 144 R0
IOPIN 256 144 Out
FLAG 256 208 R1
IOPIN 256 208 Out
FLAG 256 272 R2
IOPIN 256 272 Out
FLAG 256 336 R3
IOPIN 256 336 Out
FLAG -912 112 VDD
IOPIN -912 112 In
FLAG -848 16 VDD
IOPIN -848 16 In
SYMBOL 74HCT\\74hct157 160 -48 R0
SYMATTR InstName U1
SYMATTR SpiceLine VCC=1  SPEED=1.0  TRIPDT=1e-9
SYMBOL Digital\\or -896 0 R0
SYMATTR InstName A1
SYMBOL addsub -704 80 R0
SYMATTR InstName U2
SYMBOL addsub -704 480 R0
SYMATTR InstName X1
TEXT -1208 -96 Left 2 !.inc 74hct.lib
