Version 4
SHEET 1 880 820
WIRE -832 -464 -1456 -464
WIRE -1392 -352 -1424 -352
WIRE -1248 -336 -1280 -336
WIRE -1456 -320 -1456 -464
WIRE -1392 -320 -1456 -320
WIRE -1248 -272 -1248 -336
WIRE -1072 -256 -1136 -256
WIRE -1392 -176 -1424 -176
WIRE -1248 -160 -1248 -240
WIRE -1248 -160 -1280 -160
WIRE -1600 -144 -1664 -144
WIRE -1392 -144 -1600 -144
WIRE -1072 -48 -1072 -256
WIRE -1024 -48 -1072 -48
WIRE -960 -48 -1024 -48
WIRE -832 -32 -832 -464
WIRE -832 -32 -848 -32
WIRE -784 -32 -832 -32
WIRE -480 -32 -784 -32
WIRE -960 -16 -1008 -16
WIRE -832 64 -832 -32
WIRE -832 64 -992 64
WIRE -1008 80 -1008 -16
WIRE -832 80 -1008 80
WIRE -992 128 -992 64
WIRE -960 128 -992 128
WIRE -832 144 -832 80
WIRE -832 144 -848 144
WIRE -784 144 -832 144
WIRE -480 144 -784 144
WIRE -1024 160 -1056 160
WIRE -960 160 -1024 160
WIRE -1392 224 -1424 224
WIRE -1248 240 -1280 240
WIRE -1600 256 -1664 256
WIRE -1392 256 -1600 256
WIRE -1248 304 -1248 240
WIRE -1056 320 -1056 160
WIRE -1056 320 -1136 320
WIRE -1392 400 -1424 400
WIRE -1248 416 -1248 336
WIRE -1248 416 -1280 416
WIRE -1392 432 -1456 432
WIRE -1456 576 -1456 432
WIRE -832 576 -832 144
WIRE -832 576 -1456 576
FLAG -1024 160 S
FLAG -784 -32 Q
FLAG -784 144 -Q
FLAG -1024 -48 R
FLAG -1600 256 J
FLAG -1600 -144 K
FLAG -1664 256 J
IOPIN -1664 256 In
FLAG -1664 -144 K
IOPIN -1664 -144 In
FLAG -480 -32 Q
IOPIN -480 -32 Out
FLAG -480 144 -Q
IOPIN -480 144 Out
FLAG -1424 -352 0
FLAG -1424 400 0
FLAG -1424 -176 0
FLAG -1424 224 0
SYMBOL 74HCT\\74hct02 -912 -96 R0
SYMATTR InstName U1
SYMATTR SpiceLine VCC=1  SPEED=0.001  TRIPDT=1e-11
SYMBOL 74HCT\\74hct02 -912 80 R0
SYMATTR InstName U2
SYMATTR SpiceLine VCC=1  SPEED=0.001  TRIPDT=1e-11
SYMBOL 74HCT\\74hct02 -1200 256 R0
SYMATTR InstName U3
SYMATTR SpiceLine VCC=1  SPEED=0.001  TRIPDT=1e-11
SYMBOL 74HCT\\74hct02 -1344 176 R0
SYMATTR InstName U4
SYMATTR SpiceLine VCC=1  SPEED=0.001  TRIPDT=1e-11
SYMBOL 74HCT\\74hct02 -1344 352 R0
SYMATTR InstName U5
SYMATTR SpiceLine VCC=1  SPEED=0.001  TRIPDT=1e-11
SYMBOL 74HCT\\74hct02 -1200 -320 R0
SYMATTR InstName U6
SYMATTR SpiceLine VCC=1  SPEED=0.001  TRIPDT=1e-11
SYMBOL 74HCT\\74hct02 -1344 -400 R0
SYMATTR InstName U7
SYMATTR SpiceLine VCC=1  SPEED=0.001  TRIPDT=1e-11
SYMBOL 74HCT\\74hct02 -1344 -224 R0
SYMATTR InstName U8
SYMATTR SpiceLine VCC=1  SPEED=0.001  TRIPDT=1e-11
TEXT -1712 -496 Left 2 !.include 74hct.lib
