Version 4
SHEET 1 5548 836
WIRE 800 -400 768 -400
WIRE 800 -384 800 -400
WIRE 848 -384 800 -384
WIRE 1456 -384 848 -384
WIRE 432 -288 384 -288
WIRE 768 -288 768 -400
WIRE 384 -224 384 -288
WIRE 384 -112 384 -144
WIRE 1248 -48 1200 -48
WIRE 1360 -48 1248 -48
WIRE 1456 32 1456 -384
WIRE 1808 32 1648 32
WIRE 1920 32 1808 32
WIRE 2336 32 2256 32
WIRE 2432 32 2336 32
WIRE 1360 80 1360 -48
WIRE 1456 80 1360 80
WIRE 2336 80 2336 32
WIRE 4480 80 4480 -32
WIRE 2432 96 2432 32
WIRE 944 128 912 128
WIRE 1200 128 1200 -48
WIRE 1200 128 944 128
WIRE 1456 128 1408 128
WIRE 912 160 912 128
WIRE 912 160 864 160
WIRE 912 192 880 192
WIRE 2336 192 2336 160
WIRE 2432 192 2432 160
WIRE 4480 192 4480 160
WIRE 912 208 912 192
WIRE 960 208 912 208
WIRE 1248 208 960 208
WIRE 1408 208 1408 128
WIRE 1408 208 1248 208
WIRE 1648 256 1648 80
WIRE 1888 256 1648 256
WIRE 1920 256 1888 256
WIRE 2336 256 2256 256
WIRE 2432 256 2336 256
WIRE 880 304 880 192
WIRE 2336 304 2336 256
WIRE 2432 320 2432 256
WIRE 2336 416 2336 384
WIRE 2432 416 2432 384
FLAG 2336 192 0
FLAG 2432 192 0
FLAG 864 160 VDD
FLAG 880 304 VDD
FLAG 2064 -32 VDD
FLAG 4480 -32 VDD
FLAG 4480 192 0
FLAG 2336 416 0
FLAG 2432 416 0
FLAG 2064 192 VDD
FLAG 944 128 J
FLAG 960 208 K
FLAG 1808 32 Q3
FLAG 1888 256 -Q3
FLAG 384 -112 0
FLAG 576 -352 VDD
FLAG 848 -384 C
FLAG 1248 -48 J
FLAG 1248 208 K
SYMBOL res 2320 64 R0
SYMATTR InstName R1
SYMATTR Value 100k
SYMBOL cap 2416 96 R0
SYMATTR InstName C1
SYMATTR Value 100f
SYMBOL inverter 2048 32 R0
SYMATTR InstName X3
SYMBOL voltage 4480 64 R0
WINDOW 123 0 0 Left 2
WINDOW 39 0 0 Left 2
SYMATTR InstName VDD2
SYMATTR Value 1
SYMBOL res 2320 288 R0
SYMATTR InstName R2
SYMATTR Value 100k
SYMBOL cap 2416 320 R0
SYMATTR InstName C2
SYMATTR Value 100f
SYMBOL inverter 2048 256 R0
SYMATTR InstName X5
SYMBOL voltage 384 -240 R0
WINDOW 123 0 0 Left 2
WINDOW 39 0 0 Left 2
SYMATTR InstName V3
SYMATTR Value PULSE(0 1 1n 10p 10p 320p 630p)
SYMBOL inverter 560 -288 R0
SYMATTR InstName X1
SYMBOL jktd 1552 80 R0
SYMATTR InstName X6
TEXT 352 16 Left 2 !.tran 0 10n 0 1p
TEXT 344 -24 Left 2 !.include 90nm_bulk.txt
TEXT 1040 -400 Left 2 !.include 74hct.lib
