Version 4
SHEET 1 3148 1636
WIRE 544 528 544 464
WIRE 624 528 544 528
WIRE -496 544 -848 544
WIRE -448 544 -496 544
WIRE -368 544 -448 544
WIRE -528 560 -720 560
WIRE -464 560 -528 560
WIRE -368 560 -464 560
WIRE 64 560 -304 560
WIRE 624 560 64 560
WIRE -560 576 -656 576
WIRE -480 576 -560 576
WIRE -368 576 -480 576
WIRE -496 592 -544 592
WIRE -368 592 -496 592
WIRE -288 640 -288 528
WIRE -256 640 -288 640
WIRE 624 640 -32 640
WIRE -256 656 -416 656
WIRE 1024 656 816 656
WIRE 624 672 256 672
WIRE -1024 688 -1200 688
WIRE -720 688 -720 560
WIRE -720 688 -1024 688
WIRE -416 688 -416 656
WIRE -256 688 -416 688
WIRE 1024 688 1024 656
WIRE 1360 688 1024 688
WIRE 2576 688 1360 688
WIRE 2992 688 2912 688
WIRE 3088 688 2992 688
WIRE -1600 704 -1744 704
WIRE -1216 704 -1264 704
WIRE -1200 704 -1200 688
WIRE -1200 704 -1216 704
WIRE 624 704 -16 704
WIRE -416 720 -416 688
WIRE -256 720 -416 720
WIRE 944 720 816 720
WIRE -1168 736 -1248 736
WIRE -848 736 -848 544
WIRE -848 736 -1168 736
WIRE 624 736 272 736
WIRE 2992 736 2992 688
WIRE -416 752 -416 720
WIRE -256 752 -416 752
WIRE -32 752 -32 640
WIRE 3088 752 3088 688
WIRE -416 768 -416 752
WIRE 624 768 0 768
WIRE 944 768 944 720
WIRE 1360 768 944 768
WIRE 2064 768 1360 768
WIRE 2480 768 2400 768
WIRE 2576 768 2480 768
WIRE -16 784 -16 704
WIRE -16 784 -32 784
WIRE 912 784 816 784
WIRE 624 800 288 800
WIRE -448 816 -448 544
WIRE -256 816 -448 816
WIRE 0 816 0 768
WIRE 0 816 -32 816
WIRE 2480 816 2480 768
WIRE 624 832 16 832
WIRE 2576 832 2576 768
WIRE -1584 848 -1632 848
WIRE -1248 848 -1248 736
WIRE -464 848 -464 560
WIRE -256 848 -464 848
WIRE 16 848 16 832
WIRE 16 848 -32 848
WIRE 912 848 912 784
WIRE 1360 848 912 848
WIRE 1840 848 1360 848
WIRE 2992 848 2992 816
WIRE 3088 848 3088 816
WIRE 624 864 304 864
WIRE -480 880 -480 576
WIRE -256 880 -480 880
WIRE 2688 896 2688 784
WIRE -1632 912 -1632 848
WIRE -496 912 -496 592
WIRE -256 912 -496 912
WIRE -1104 928 -1248 928
WIRE -656 928 -656 576
WIRE -656 928 -1104 928
WIRE 816 928 816 848
WIRE 1360 928 816 928
WIRE 1664 928 1360 928
WIRE 2480 928 2480 896
WIRE 2576 928 2576 896
WIRE -1744 976 -1744 704
WIRE 2688 1008 2688 976
WIRE -1632 1024 -1632 992
WIRE -288 1040 -288 640
WIRE -256 1040 -288 1040
WIRE -448 1056 -448 816
WIRE -256 1056 -448 1056
WIRE -464 1088 -464 848
WIRE -256 1088 -464 1088
WIRE -1744 1104 -1744 1056
WIRE -480 1120 -480 880
WIRE -256 1120 -480 1120
WIRE -496 1152 -496 912
WIRE -256 1152 -496 1152
WIRE 256 1152 256 672
WIRE 256 1152 -32 1152
WIRE -1584 1168 -1632 1168
WIRE -1248 1168 -1248 928
WIRE 1840 1168 1840 848
WIRE 1888 1168 1840 1168
WIRE 2304 1168 2224 1168
WIRE 2400 1168 2304 1168
WIRE 272 1184 272 736
WIRE 272 1184 -32 1184
WIRE -1024 1216 -1024 688
WIRE -256 1216 -1024 1216
WIRE 288 1216 288 800
WIRE 288 1216 -32 1216
WIRE 2304 1216 2304 1168
WIRE -1632 1232 -1632 1168
WIRE 2400 1232 2400 1168
WIRE -1104 1248 -1104 928
WIRE -256 1248 -1104 1248
WIRE 304 1248 304 864
WIRE 304 1248 -32 1248
WIRE -1168 1280 -1168 736
WIRE -256 1280 -1168 1280
WIRE -1216 1312 -1216 704
WIRE -256 1312 -1216 1312
WIRE 2304 1328 2304 1296
WIRE 2400 1328 2400 1296
WIRE -1632 1344 -1632 1312
WIRE 1664 1344 1664 928
WIRE 1712 1344 1664 1344
WIRE 2128 1344 2048 1344
WIRE 2224 1344 2128 1344
WIRE 2128 1392 2128 1344
WIRE 2224 1408 2224 1344
WIRE -1328 1440 -1376 1440
WIRE -928 1440 -992 1440
WIRE -544 1440 -544 592
WIRE -544 1440 -928 1440
WIRE -1376 1504 -1376 1440
WIRE 2128 1504 2128 1472
WIRE 2224 1504 2224 1472
WIRE -1376 1616 -1376 1584
FLAG 2688 784 VDD
FLAG 2688 1008 0
FLAG -1744 1104 0
FLAG -1632 1024 0
FLAG 2992 848 0
FLAG 3088 848 0
FLAG -1456 640 VDD
FLAG -1440 784 VDD
FLAG 2720 624 VDD
FLAG -1632 1344 0
FLAG -1440 1104 VDD
FLAG 2480 928 0
FLAG 2576 928 0
FLAG 2208 704 VDD
FLAG 2304 1328 0
FLAG 2400 1328 0
FLAG 2032 1104 VDD
FLAG 2128 1504 0
FLAG 2224 1504 0
FLAG 1856 1280 VDD
FLAG 544 464 0
FLAG -416 768 0
FLAG -256 976 VDD
FLAG -256 1376 VDD
FLAG -288 528 VDD
FLAG -496 544 OR_IN0
FLAG -528 560 OR_IN1
FLAG -560 576 OR_IN2
FLAG -928 1440 OR_IN3
FLAG 64 560 OR_OUT
FLAG 1360 688 R0
FLAG 1360 768 R1
FLAG 1360 848 R2
FLAG 1360 928 R3
FLAG -1376 1616 0
FLAG -1184 1376 VDD
SYMBOL voltage 2688 880 R0
WINDOW 123 0 0 Left 2
WINDOW 39 0 0 Left 2
SYMATTR InstName VDD
SYMATTR Value 1
SYMBOL voltage -1744 960 R0
WINDOW 123 0 0 Left 2
WINDOW 39 0 0 Left 2
SYMATTR InstName V2
SYMATTR Value PULSE(0 1 4n 10p 10p 2n 4n)
SYMBOL voltage -1632 896 R0
WINDOW 123 0 0 Left 2
WINDOW 39 0 0 Left 2
SYMATTR InstName V1
SYMATTR Value PULSE(0 1 1n 10p 10p 2n 4n)
SYMBOL res 2976 720 R0
SYMATTR InstName R1
SYMATTR Value 100k
SYMBOL cap 3072 752 R0
SYMATTR InstName C1
SYMATTR Value 100f
SYMBOL inverter -1472 704 R0
SYMATTR InstName X2
SYMBOL inverter 2704 688 R0
SYMATTR InstName X3
SYMBOL inverter -1456 848 R0
SYMATTR InstName X4
SYMBOL inverter -1456 1168 R0
SYMATTR InstName X1
SYMBOL voltage -1632 1216 R0
WINDOW 123 0 0 Left 2
WINDOW 39 0 0 Left 2
SYMATTR InstName V3
SYMATTR Value PULSE(0 1 3n 10p 10p 4n 8n)
SYMBOL res 2464 800 R0
SYMATTR InstName R2
SYMATTR Value 100k
SYMBOL cap 2560 832 R0
SYMATTR InstName C2
SYMATTR Value 100f
SYMBOL inverter 2192 768 R0
SYMATTR InstName X6
SYMBOL res 2288 1200 R0
SYMATTR InstName R3
SYMATTR Value 100k
SYMBOL cap 2384 1232 R0
SYMATTR InstName C3
SYMATTR Value 100f
SYMBOL inverter 2016 1168 R0
SYMATTR InstName X7
SYMBOL res 2112 1376 R0
SYMATTR InstName R4
SYMATTR Value 100k
SYMBOL cap 2208 1408 R0
SYMATTR InstName C4
SYMATTR Value 100f
SYMBOL inverter 1840 1344 R0
SYMATTR InstName X8
SYMBOL 74HCT\\74hct157 720 464 R0
SYMATTR InstName U1
SYMATTR SpiceLine VCC=1  SPEED=0.001  TRIPDT=1e-11
SYMBOL Digital\\or -336 512 R0
SYMATTR InstName A1
SYMBOL addsub -144 592 R0
SYMATTR InstName U2
SYMBOL addsub -144 992 R0
SYMATTR InstName X5
SYMBOL inverter -1200 1440 R0
SYMATTR InstName X9
SYMBOL voltage -1376 1488 R0
WINDOW 123 0 0 Left 2
WINDOW 39 0 0 Left 2
SYMATTR InstName V4
SYMATTR Value PULSE(0 1 3n 10p 10p 4n 8n)
TEXT -1776 560 Left 2 !.tran 0 12n 0 1p
TEXT -1768 528 Left 2 !.include 90nm_bulk.txt
TEXT -1760 496 Left 2 !.include 74hct.lib
