Version 4
SHEET 1 3148 2308
WIRE -976 144 -1024 144
WIRE -448 144 -640 144
WIRE -1024 208 -1024 144
WIRE -1024 320 -1024 288
WIRE -976 384 -1024 384
WIRE -464 384 -640 384
WIRE -1024 448 -1024 384
WIRE 128 528 128 464
WIRE 208 528 128 528
WIRE -448 544 -448 144
WIRE -368 544 -448 544
WIRE -464 560 -464 384
WIRE -368 560 -464 560
WIRE 64 560 -304 560
WIRE 208 560 64 560
WIRE -1024 576 -1024 528
WIRE -480 576 -640 576
WIRE -368 576 -480 576
WIRE -496 592 -592 592
WIRE -368 592 -496 592
WIRE -976 640 -1024 640
WIRE -640 640 -640 576
WIRE 208 640 -80 640
WIRE 480 656 400 656
WIRE 1616 656 480 656
WIRE 2032 656 1952 656
WIRE 2128 656 2032 656
WIRE 208 672 128 672
WIRE -1024 704 -1024 640
WIRE -80 704 -80 640
WIRE 208 704 -80 704
WIRE 2032 704 2032 656
WIRE 480 720 400 720
WIRE 1440 720 480 720
WIRE 2128 720 2128 656
WIRE 208 736 144 736
WIRE -80 768 -80 704
WIRE 208 768 -80 768
WIRE 480 784 400 784
WIRE 896 784 480 784
WIRE 1440 784 1440 720
WIRE 1856 784 1776 784
WIRE 1952 784 1856 784
WIRE 208 800 160 800
WIRE -1024 816 -1024 784
WIRE 2032 816 2032 784
WIRE 2128 816 2128 784
WIRE -80 832 -80 768
WIRE 208 832 -80 832
WIRE 896 832 896 784
WIRE 944 832 896 832
WIRE 1360 832 1280 832
WIRE 1456 832 1360 832
WIRE 1856 832 1856 784
WIRE 480 848 400 848
WIRE 544 848 480 848
WIRE 1952 848 1952 784
WIRE 208 864 176 864
WIRE -80 880 -80 832
WIRE 1360 880 1360 832
WIRE -976 896 -1024 896
WIRE -592 896 -592 592
WIRE -592 896 -640 896
WIRE 1456 896 1456 832
WIRE 544 912 544 848
WIRE 592 912 544 912
WIRE 1008 912 928 912
WIRE 1104 912 1008 912
WIRE 1856 944 1856 912
WIRE 1952 944 1952 912
WIRE -1024 960 -1024 896
WIRE 1008 960 1008 912
WIRE 1104 976 1104 912
WIRE 1360 992 1360 960
WIRE 1456 992 1456 960
WIRE -288 1040 -288 528
WIRE -256 1040 -288 1040
WIRE -448 1056 -448 544
WIRE -384 1056 -448 1056
WIRE -256 1056 -384 1056
WIRE -1024 1072 -1024 1040
WIRE 1008 1072 1008 1040
WIRE 1104 1072 1104 1040
WIRE -464 1088 -464 560
WIRE -384 1088 -464 1088
WIRE -256 1088 -384 1088
WIRE -480 1120 -480 576
WIRE -384 1120 -480 1120
WIRE -256 1120 -384 1120
WIRE -496 1152 -496 592
WIRE -384 1152 -496 1152
WIRE -256 1152 -384 1152
WIRE 128 1152 128 672
WIRE 128 1152 -32 1152
WIRE 144 1184 144 736
WIRE 144 1184 -32 1184
WIRE -976 1216 -1024 1216
WIRE -384 1216 -640 1216
WIRE -256 1216 -384 1216
WIRE 160 1216 160 800
WIRE 160 1216 -32 1216
WIRE -384 1248 -640 1248
WIRE -256 1248 -384 1248
WIRE 176 1248 176 864
WIRE 176 1248 -32 1248
WIRE 336 1248 336 1136
WIRE -1024 1280 -1024 1216
WIRE -384 1280 -528 1280
WIRE -256 1280 -384 1280
WIRE -384 1312 -432 1312
WIRE -256 1312 -384 1312
WIRE 336 1360 336 1328
WIRE -1024 1392 -1024 1360
WIRE -976 1440 -1024 1440
WIRE -640 1440 -640 1248
WIRE -1024 1504 -1024 1440
WIRE -1024 1616 -1024 1584
WIRE -976 1680 -1024 1680
WIRE -528 1680 -528 1280
WIRE -528 1680 -640 1680
WIRE -1024 1744 -1024 1680
WIRE -1024 1856 -1024 1824
WIRE -976 1920 -1024 1920
WIRE -432 1920 -432 1312
WIRE -432 1920 -640 1920
WIRE -1024 1984 -1024 1920
WIRE -1024 2096 -1024 2064
FLAG 336 1136 VDD
FLAG 336 1360 0
FLAG -1024 576 0
FLAG -1024 320 0
FLAG 2032 816 0
FLAG 2128 816 0
FLAG -832 320 VDD
FLAG -832 80 VDD
FLAG 1760 592 VDD
FLAG -1024 1072 0
FLAG -832 832 VDD
FLAG 1856 944 0
FLAG 1952 944 0
FLAG 1584 720 VDD
FLAG 1360 992 0
FLAG 1456 992 0
FLAG 1088 768 VDD
FLAG 1008 1072 0
FLAG 1104 1072 0
FLAG 736 848 VDD
FLAG 128 464 0
FLAG -80 880 0
FLAG -256 1376 VDD
FLAG -288 528 VDD
FLAG 64 560 OR_OUT
FLAG 480 656 R0
FLAG 480 720 R1
FLAG 480 784 R2
FLAG 480 848 R3
FLAG -1024 816 0
FLAG -832 576 VDD
FLAG -1024 1392 0
FLAG -832 1152 VDD
FLAG -1024 1616 0
FLAG -832 1376 VDD
FLAG -1024 1856 0
FLAG -832 1616 VDD
FLAG -1024 2096 0
FLAG -832 1856 VDD
FLAG -384 1216 B0
FLAG -384 1248 B1
FLAG -384 1280 B2
FLAG -384 1312 B3
FLAG -384 1056 A0
FLAG -384 1088 A1
FLAG -384 1120 A2
FLAG -384 1152 A3
SYMBOL voltage 336 1232 R0
WINDOW 123 0 0 Left 2
WINDOW 39 0 0 Left 2
SYMATTR InstName VDD
SYMATTR Value 1
SYMBOL voltage -1024 432 R0
WINDOW 123 0 0 Left 2
WINDOW 39 0 0 Left 2
SYMATTR InstName V2
SYMATTR Value PULSE(0 1 4n 10p 10p 2n 4n)
SYMBOL voltage -1024 192 R0
WINDOW 123 0 0 Left 2
WINDOW 39 0 0 Left 2
SYMATTR InstName V1
SYMATTR Value PULSE(0 1 1n 10p 10p 2n 4n)
SYMBOL res 2016 688 R0
SYMATTR InstName R1
SYMATTR Value 100k
SYMBOL cap 2112 720 R0
SYMATTR InstName C1
SYMATTR Value 100f
SYMBOL inverter -848 384 R0
SYMATTR InstName X2
SYMBOL inverter 1744 656 R0
SYMATTR InstName X3
SYMBOL inverter -848 144 R0
SYMATTR InstName X4
SYMBOL inverter -848 896 R0
SYMATTR InstName X1
SYMBOL voltage -1024 944 R0
WINDOW 123 0 0 Left 2
WINDOW 39 0 0 Left 2
SYMATTR InstName V3
SYMATTR Value PULSE(0 1 3n 10p 10p 4n 8n)
SYMBOL res 1840 816 R0
SYMATTR InstName R2
SYMATTR Value 100k
SYMBOL cap 1936 848 R0
SYMATTR InstName C2
SYMATTR Value 100f
SYMBOL inverter 1568 784 R0
SYMATTR InstName X6
SYMBOL res 1344 864 R0
SYMATTR InstName R3
SYMATTR Value 100k
SYMBOL cap 1440 896 R0
SYMATTR InstName C3
SYMATTR Value 100f
SYMBOL inverter 1072 832 R0
SYMATTR InstName X7
SYMBOL res 992 944 R0
SYMATTR InstName R4
SYMATTR Value 100k
SYMBOL cap 1088 976 R0
SYMATTR InstName C4
SYMATTR Value 100f
SYMBOL inverter 720 912 R0
SYMATTR InstName X8
SYMBOL 74HCT\\74hct157 304 464 R0
SYMATTR InstName U1
SYMATTR SpiceLine VCC=1  SPEED=0.001  TRIPDT=1e-11
SYMBOL Digital\\or -336 512 R0
SYMATTR InstName A1
SYMBOL addsub -144 992 R0
SYMATTR InstName X5
SYMBOL inverter -848 640 R0
SYMATTR InstName X9
SYMBOL voltage -1024 688 R0
WINDOW 123 0 0 Left 2
WINDOW 39 0 0 Left 2
SYMATTR InstName V4
SYMATTR Value PULSE(0 1 3n 10p 10p 4n 8n)
SYMBOL inverter -848 1216 R0
SYMATTR InstName X10
SYMBOL voltage -1024 1264 R0
WINDOW 123 0 0 Left 2
WINDOW 39 0 0 Left 2
SYMATTR InstName V5
SYMATTR Value PULSE(0 1 0n 10p 10p 2n 4n)
SYMBOL inverter -848 1440 R0
SYMATTR InstName X11
SYMBOL voltage -1024 1488 R0
WINDOW 123 0 0 Left 2
WINDOW 39 0 0 Left 2
SYMATTR InstName V6
SYMATTR Value PULSE(0 1 0n 10p 10p 4n 8n)
SYMBOL inverter -848 1680 R0
SYMATTR InstName X12
SYMBOL voltage -1024 1728 R0
WINDOW 123 0 0 Left 2
WINDOW 39 0 0 Left 2
SYMATTR InstName V7
SYMATTR Value PULSE(0 1 0n 10p 10p 8n 16n)
SYMBOL inverter -848 1920 R0
SYMATTR InstName X13
SYMBOL voltage -1024 1968 R0
WINDOW 123 0 0 Left 2
WINDOW 39 0 0 Left 2
SYMATTR InstName V8
SYMATTR Value PULSE(0 1 0n 10p 10p 16n 32n)
TEXT -296 256 Left 2 !.tran 0 32n 0 1p
TEXT -288 224 Left 2 !.include 90nm_bulk.txt
TEXT -280 192 Left 2 !.include 74hct.lib
