Version 4
SHEET 1 2572 836
WIRE -224 -400 -256 -400
WIRE -224 -384 -224 -400
WIRE -176 -384 -224 -384
WIRE 112 -384 -176 -384
WIRE 1104 -368 384 -368
WIRE -592 -288 -640 -288
WIRE -256 -288 -256 -400
WIRE 384 -240 384 -368
WIRE 592 -240 384 -240
WIRE -640 -224 -640 -288
WIRE 432 -192 384 -192
WIRE 592 -192 592 -240
WIRE 624 -192 592 -192
WIRE 624 -176 544 -176
WIRE 432 -160 384 -160
WIRE 624 -160 592 -160
WIRE 768 -144 688 -144
WIRE -640 -112 -640 -144
WIRE 448 -80 416 -80
WIRE 592 -64 592 -160
WIRE 592 -64 560 -64
WIRE 240 -48 32 -48
WIRE 448 -48 240 -48
WIRE 112 48 112 -384
WIRE 384 48 384 -160
WIRE 384 48 112 48
WIRE 768 48 768 -144
WIRE 816 48 768 48
WIRE 880 48 816 48
WIRE 1008 64 992 64
WIRE 1056 64 1008 64
WIRE 1152 64 1056 64
WIRE 1504 64 1152 64
WIRE 880 80 832 80
WIRE 1504 96 1504 64
WIRE 1632 96 1504 96
WIRE 2000 96 1632 96
WIRE 2416 96 2336 96
WIRE 2512 96 2416 96
WIRE -80 128 -112 128
WIRE 176 128 -80 128
WIRE 2416 144 2416 96
WIRE -496 160 -640 160
WIRE -112 160 -112 128
WIRE -112 160 -160 160
WIRE 1008 160 1008 64
WIRE 1008 160 848 160
WIRE 2512 160 2512 96
WIRE 832 176 832 80
WIRE 1008 176 832 176
WIRE 1632 176 1360 176
WIRE 1712 176 1632 176
WIRE -112 192 -144 192
WIRE -112 208 -112 192
WIRE -64 208 -112 208
WIRE 32 208 32 -48
WIRE 32 208 -64 208
WIRE 848 224 848 160
WIRE 880 224 848 224
WIRE 1008 240 1008 176
WIRE 1008 240 992 240
WIRE 1056 240 1008 240
WIRE 1104 240 1104 -368
WIRE 1104 240 1056 240
WIRE 1360 240 1360 176
WIRE 1360 240 1104 240
WIRE 816 256 784 256
WIRE 880 256 816 256
WIRE 2416 256 2416 224
WIRE 2512 256 2512 224
WIRE -480 304 -528 304
WIRE -144 304 -144 192
WIRE 448 320 416 320
WIRE 592 336 560 336
WIRE 176 352 176 128
WIRE 240 352 176 352
WIRE 448 352 240 352
WIRE -528 368 -528 304
WIRE 592 400 592 336
WIRE 624 400 592 400
WIRE 624 416 560 416
WIRE 448 432 416 432
WIRE 624 432 576 432
WIRE -640 448 -640 160
WIRE 560 448 560 416
WIRE 784 448 784 256
WIRE 784 448 688 448
WIRE 384 464 384 48
WIRE 448 464 384 464
WIRE 1712 464 1712 176
WIRE 1744 464 1712 464
WIRE 2160 464 2080 464
WIRE 2256 464 2160 464
WIRE -528 480 -528 448
WIRE 2160 512 2160 464
WIRE 576 528 576 432
WIRE 576 528 384 528
WIRE 2256 528 2256 464
WIRE -640 576 -640 528
WIRE 2160 624 2160 592
WIRE 2256 624 2256 592
WIRE 384 672 384 528
WIRE 1152 672 1152 64
WIRE 1152 672 384 672
WIRE 1856 672 1856 560
WIRE 1856 784 1856 752
FLAG -640 576 0
FLAG -528 480 0
FLAG 2416 256 0
FLAG 2512 256 0
FLAG -352 96 VDD
FLAG -336 240 VDD
FLAG 2144 32 VDD
FLAG 1856 560 VDD
FLAG 1856 784 0
FLAG 2160 624 0
FLAG 2256 624 0
FLAG 1888 400 VDD
FLAG -80 128 J
FLAG -64 208 K
FLAG 1632 96 Q
FLAG 1632 176 -Q
FLAG 816 256 S
FLAG 1056 64 Q
FLAG 1056 240 -Q
FLAG 816 48 R
FLAG 240 352 J
FLAG 240 -48 K
FLAG 416 -80 0
FLAG 416 320 0
FLAG 384 -192 0
FLAG 416 432 0
FLAG -640 -112 0
FLAG -448 -352 VDD
FLAG -176 -384 C
SYMBOL voltage -640 432 R0
WINDOW 123 0 0 Left 2
WINDOW 39 0 0 Left 2
SYMATTR InstName V2
SYMATTR Value PULSE(0 1 4n 10p 10p 4n 8n)
SYMBOL voltage -528 352 R0
WINDOW 123 0 0 Left 2
WINDOW 39 0 0 Left 2
SYMATTR InstName V1
SYMATTR Value PULSE(0 1 2n 10p 10p 2n 4n)
SYMBOL res 2400 128 R0
SYMATTR InstName R1
SYMATTR Value 100k
SYMBOL cap 2496 160 R0
SYMATTR InstName C1
SYMATTR Value 100f
SYMBOL inverter -368 160 R0
SYMATTR InstName X2
SYMBOL inverter 2128 96 R0
SYMATTR InstName X3
SYMBOL inverter -352 304 R0
SYMATTR InstName X4
SYMBOL voltage 1856 656 R0
WINDOW 123 0 0 Left 2
WINDOW 39 0 0 Left 2
SYMATTR InstName VDD2
SYMATTR Value 1
SYMBOL res 2144 496 R0
SYMATTR InstName R2
SYMATTR Value 100k
SYMBOL cap 2240 528 R0
SYMATTR InstName C2
SYMATTR Value 100f
SYMBOL inverter 1872 464 R0
SYMATTR InstName X5
SYMBOL 74HCT\\74hct02 928 0 R0
SYMATTR InstName U1
SYMATTR SpiceLine VCC=1  SPEED=0.001  TRIPDT=1e-11
SYMBOL 74HCT\\74hct02 928 176 R0
SYMATTR InstName U2
SYMATTR SpiceLine VCC=1  SPEED=0.001  TRIPDT=1e-11
SYMBOL 74HCT\\74hct02 496 384 R0
SYMATTR InstName U3
SYMATTR SpiceLine VCC=1  SPEED=0.001  TRIPDT=1e-11
SYMBOL 74HCT\\74hct02 496 272 R0
SYMATTR InstName U4
SYMATTR SpiceLine VCC=1  SPEED=0.001  TRIPDT=1e-11
SYMBOL 74HCT\\74hct02 480 -240 R0
SYMATTR InstName U6
SYMATTR SpiceLine VCC=1  SPEED=0.001  TRIPDT=1e-11
SYMBOL 74HCT\\74hct02 496 -128 R0
SYMATTR InstName U8
SYMATTR SpiceLine VCC=1  SPEED=0.001  TRIPDT=1e-11
SYMBOL Digital\\or 656 -224 R0
SYMATTR InstName A1
SYMBOL Digital\\or 656 368 R0
SYMATTR InstName A2
SYMBOL voltage -640 -240 R0
WINDOW 123 0 0 Left 2
WINDOW 39 0 0 Left 2
SYMATTR InstName V3
SYMATTR Value PULSE(0 1 8n 10p 10p 8n 16n)
SYMBOL inverter -464 -288 R0
SYMATTR InstName X1
TEXT -672 16 Left 2 !.tran 0 16n 0 1p
TEXT -680 -24 Left 2 !.include 90nm_bulk.txt
TEXT 128 -400 Left 2 !.include 74hct.lib
