Version 4
SHEET 1 1740 1524
WIRE 0 464 0 400
WIRE -704 592 -848 592
WIRE -112 592 -368 592
WIRE 1168 592 112 592
WIRE 1584 592 1504 592
WIRE 1680 592 1584 592
WIRE 1584 640 1584 592
WIRE 1680 656 1680 592
WIRE -112 672 -352 672
WIRE 656 672 112 672
WIRE 1072 672 992 672
WIRE 1168 672 1072 672
WIRE 1072 720 1072 672
WIRE -688 736 -736 736
WIRE -352 736 -352 672
WIRE 1168 736 1168 672
WIRE -112 752 -208 752
WIRE 432 752 112 752
WIRE 1584 752 1584 720
WIRE 1680 752 1680 720
WIRE -736 800 -736 736
WIRE 1280 800 1280 688
WIRE -208 816 -208 752
WIRE -208 816 -352 816
WIRE 1072 832 1072 800
WIRE 1168 832 1168 800
WIRE -848 864 -848 592
WIRE -736 912 -736 880
WIRE 1280 912 1280 880
WIRE -848 992 -848 944
WIRE -688 1056 -736 1056
WIRE -352 1056 -352 816
WIRE 432 1072 432 752
WIRE 480 1072 432 1072
WIRE 896 1072 816 1072
WIRE 992 1072 896 1072
WIRE -736 1120 -736 1056
WIRE 896 1120 896 1072
WIRE 992 1136 992 1072
WIRE -736 1232 -736 1200
WIRE 896 1232 896 1200
WIRE 992 1232 992 1200
FLAG 0 400 VDD
FLAG 1280 688 VDD
FLAG 1280 912 0
FLAG -848 992 0
FLAG -736 912 0
FLAG 1584 752 0
FLAG 1680 752 0
FLAG -560 528 VDD
FLAG -544 672 VDD
FLAG 1312 528 VDD
FLAG -736 1232 0
FLAG -544 992 VDD
FLAG 1072 832 0
FLAG 1168 832 0
FLAG 800 608 VDD
FLAG 896 1232 0
FLAG 992 1232 0
FLAG 624 1008 VDD
SYMBOL voltage 1280 784 R0
WINDOW 123 0 0 Left 2
WINDOW 39 0 0 Left 2
SYMATTR InstName VDD
SYMATTR Value 1
SYMBOL voltage -848 848 R0
WINDOW 123 0 0 Left 2
WINDOW 39 0 0 Left 2
SYMATTR InstName V2
SYMATTR Value PULSE(0 1 4n 10p 10p 2n 4n)
SYMBOL voltage -736 784 R0
WINDOW 123 0 0 Left 2
WINDOW 39 0 0 Left 2
SYMATTR InstName V1
SYMATTR Value PULSE(0 1 1n 10p 10p 2n 4n)
SYMBOL res 1568 624 R0
SYMATTR InstName R1
SYMATTR Value 100k
SYMBOL cap 1664 656 R0
SYMATTR InstName C1
SYMATTR Value 100f
SYMBOL inverter -576 592 R0
SYMATTR InstName X2
SYMBOL inverter 1296 592 R0
SYMATTR InstName X3
SYMBOL inverter -560 736 R0
SYMATTR InstName X4
SYMBOL gray 0 672 R0
SYMATTR InstName X5
SYMBOL inverter -560 1056 R0
SYMATTR InstName X1
SYMBOL voltage -736 1104 R0
WINDOW 123 0 0 Left 2
WINDOW 39 0 0 Left 2
SYMATTR InstName V3
SYMATTR Value PULSE(0 1 2n 10p 10p 2n 4n)
SYMBOL res 1056 704 R0
SYMATTR InstName R2
SYMATTR Value 100k
SYMBOL cap 1152 736 R0
SYMATTR InstName C2
SYMATTR Value 100f
SYMBOL inverter 784 672 R0
SYMATTR InstName X6
SYMBOL res 880 1104 R0
SYMATTR InstName R3
SYMATTR Value 100k
SYMBOL cap 976 1136 R0
SYMATTR InstName C3
SYMATTR Value 100f
SYMBOL inverter 608 1072 R0
SYMATTR InstName X7
TEXT -880 448 Left 2 !.tran 0 12n 0 1p
TEXT -872 416 Left 2 !.include 90nm_bulk.txt
