Version 4
SHEET 1 880 680
WIRE 160 80 160 48
WIRE 256 80 160 80
WIRE 112 96 64 96
WIRE 256 128 256 80
WIRE 256 128 160 128
WIRE 64 176 64 96
WIRE 64 176 16 176
WIRE 240 176 160 176
WIRE 256 224 160 224
WIRE 64 256 64 176
WIRE 112 256 64 256
WIRE 256 272 256 224
WIRE 256 272 160 272
WIRE 160 304 160 272
FLAG 16 176 VIN
IOPIN 16 176 In
FLAG 160 48 VDD
IOPIN 160 48 In
FLAG 240 176 VOUT
IOPIN 240 176 Out
FLAG 160 304 0
SYMBOL nmos4 112 176 R0
WINDOW 123 147 69 Left 2
SYMATTR InstName M1
SYMATTR Value2 l=90n w='{T_SIZE}*200n'
SYMBOL pmos4 112 176 M180
WINDOW 123 148 75 Left 2
SYMATTR InstName M2
SYMATTR Value2 l=90n w='{T_SIZE}*400n'
TEXT -56 -88 Left 2 !.param T_SIZE=1
