Version 4
SHEET 1 1084 680
WIRE -16 80 -16 16
WIRE -496 160 -640 160
WIRE -112 160 -160 160
WIRE 160 160 112 160
WIRE 112 176 112 160
WIRE 416 176 384 176
WIRE 832 176 752 176
WIRE 928 176 832 176
WIRE -112 192 -144 192
WIRE 832 224 832 176
WIRE 928 240 928 176
WIRE -480 304 -528 304
WIRE -144 304 -144 192
WIRE 160 304 160 192
WIRE 160 304 -144 304
WIRE 832 336 832 304
WIRE 928 336 928 304
WIRE -528 368 -528 304
WIRE 528 384 528 272
WIRE -640 448 -640 160
WIRE -528 480 -528 448
WIRE 528 496 528 464
WIRE -640 576 -640 528
FLAG -16 16 VDD
FLAG 528 272 VDD
FLAG 528 496 0
FLAG -640 576 0
FLAG -528 480 0
FLAG 832 336 0
FLAG 928 336 0
FLAG -352 96 VDD
FLAG -336 240 VDD
FLAG 560 112 VDD
FLAG 0 240 VDD
SYMBOL xor -16 176 R0
SYMATTR InstName X1
SYMBOL voltage 528 368 R0
WINDOW 123 0 0 Left 2
WINDOW 39 0 0 Left 2
SYMATTR InstName VDD1
SYMATTR Value 1
SYMBOL voltage -640 432 R0
WINDOW 123 0 0 Left 2
WINDOW 39 0 0 Left 2
SYMATTR InstName V2
SYMATTR Value PULSE(0 1 2n 10p 10p 2n 4n)
SYMBOL voltage -528 352 R0
WINDOW 123 0 0 Left 2
WINDOW 39 0 0 Left 2
SYMATTR InstName V1
SYMATTR Value PULSE(0 1 1n 10p 10p 2n 4n)
SYMBOL res 816 208 R0
SYMATTR InstName R1
SYMATTR Value 100k
SYMBOL cap 912 240 R0
SYMATTR InstName C1
SYMATTR Value 100f
SYMBOL inverter -368 160 R0
SYMATTR InstName X2
SYMBOL inverter 544 176 R0
SYMATTR InstName X3
SYMBOL inverter -352 304 R0
SYMATTR InstName X4
SYMBOL xor 256 176 R0
SYMATTR InstName X5
TEXT -672 16 Left 2 !.tran 0 10n 0 1p
TEXT -680 -24 Left 2 !.include 90nm_bulk.txt
