Version 4
SHEET 1 1452 680
WIRE 1296 112 1216 112
WIRE 1392 112 1296 112
WIRE 1296 160 1296 112
WIRE -1088 176 -1232 176
WIRE 1392 176 1392 112
WIRE 1296 272 1296 240
WIRE 1392 272 1392 240
WIRE -1072 320 -1120 320
WIRE 992 320 992 208
WIRE -1120 384 -1120 320
WIRE 992 432 992 400
WIRE -1232 448 -1232 176
WIRE -1120 496 -1120 464
WIRE -1232 576 -1232 528
FLAG -16 16 VDD
FLAG 992 208 VDD
FLAG 992 432 0
FLAG -1232 576 0
FLAG -1120 496 0
FLAG 1296 272 0
FLAG 1392 272 0
FLAG -944 112 VDD
FLAG -928 256 VDD
FLAG 1024 48 VDD
SYMBOL xor -16 176 R0
SYMATTR InstName X1
SYMBOL voltage 992 304 R0
WINDOW 123 0 0 Left 2
WINDOW 39 0 0 Left 2
SYMATTR InstName VDD1
SYMATTR Value 1
SYMBOL voltage -1232 432 R0
WINDOW 123 0 0 Left 2
WINDOW 39 0 0 Left 2
SYMATTR InstName V2
SYMATTR Value PULSE(0 1 2n 10p 10p 2n 4n)
SYMBOL voltage -1120 368 R0
WINDOW 123 0 0 Left 2
WINDOW 39 0 0 Left 2
SYMATTR InstName V1
SYMATTR Value PULSE(0 1 1n 10p 10p 2n 4n)
SYMBOL res 1280 144 R0
SYMATTR InstName R1
SYMATTR Value 100k
SYMBOL cap 1376 176 R0
SYMATTR InstName C1
SYMATTR Value 100f
SYMBOL inverter -960 176 R0
SYMATTR InstName X2
SYMBOL inverter 1008 112 R0
SYMATTR InstName X3
SYMBOL inverter -944 320 R0
SYMATTR InstName X4
SYMBOL xor -16 384 R0
SYMATTR InstName X5
TEXT -1264 32 Left 2 !.tran 0 10n 0 1p
TEXT -1272 -8 Left 2 !.include 90nm_bulk.txt
