Version 4
SHEET 1 4076 1112
WIRE 1472 -1680 1392 -1680
WIRE 672 -1424 624 -1424
WIRE 1104 -1424 1008 -1424
WIRE 48 -1360 0 -1360
WIRE 448 -1360 384 -1360
WIRE 624 -1360 624 -1424
WIRE 0 -1296 0 -1360
WIRE -1568 -1264 -1616 -1264
WIRE -272 -1264 -1232 -1264
WIRE 624 -1248 624 -1280
WIRE -1616 -1200 -1616 -1264
WIRE 0 -1184 0 -1216
WIRE -272 -1136 -272 -1264
WIRE -192 -1136 -272 -1136
WIRE -160 -1136 -192 -1136
WIRE -64 -1136 -96 -1136
WIRE 2736 -1136 2736 -1248
WIRE -1616 -1088 -1616 -1120
WIRE -192 -1088 -192 -1136
WIRE -96 -1088 -192 -1088
WIRE -1248 -1072 -1296 -1072
WIRE -320 -1072 -912 -1072
WIRE -256 -1072 -320 -1072
WIRE -176 -1072 -192 -1072
WIRE 688 -1072 640 -1072
WIRE 1072 -1072 1024 -1072
WIRE -320 -1024 -320 -1072
WIRE -192 -1024 -320 -1024
WIRE 2736 -1024 2736 -1056
WIRE -1296 -1008 -1296 -1072
WIRE 640 -1008 640 -1072
WIRE -848 -960 -896 -960
WIRE -368 -960 -512 -960
WIRE -336 -960 -368 -960
WIRE -256 -960 -272 -960
WIRE -64 -960 -64 -1136
WIRE -64 -960 -128 -960
WIRE -176 -944 -176 -1072
WIRE -176 -944 -208 -944
WIRE -1296 -896 -1296 -928
WIRE -896 -896 -896 -960
WIRE -256 -896 -256 -960
WIRE -256 -896 -288 -896
WIRE 640 -896 640 -928
WIRE -368 -880 -368 -960
WIRE -256 -880 -368 -880
WIRE -192 -880 -192 -1024
WIRE -176 -880 -192 -880
WIRE -896 -784 -896 -816
WIRE 512 -784 512 -1360
WIRE 512 -784 160 -784
WIRE 1472 -784 1472 -1680
WIRE 1472 -784 1136 -784
WIRE -288 -768 -288 -896
WIRE -256 -768 -256 -880
WIRE -208 -768 -208 -944
WIRE -176 -768 -176 -880
WIRE -128 -768 -128 -960
WIRE -96 -768 -96 -1088
WIRE 160 -752 160 -784
WIRE 1072 -752 1072 -1072
WIRE 1104 -752 1104 -1424
WIRE 1136 -752 1136 -784
WIRE 1136 -640 1136 -752
WIRE 1984 -640 1136 -640
WIRE 1104 -592 1104 -752
WIRE 1872 -592 1104 -592
WIRE 2800 -464 2720 -464
WIRE 2896 -464 2800 -464
WIRE 3440 -464 3360 -464
WIRE 3536 -464 3440 -464
WIRE 2800 -416 2800 -464
WIRE 3440 -416 3440 -464
WIRE 2896 -400 2896 -464
WIRE 3536 -400 3536 -464
WIRE 1872 -368 1872 -592
WIRE 1984 -368 1984 -640
WIRE 2800 -304 2800 -336
WIRE 2896 -304 2896 -336
WIRE 3440 -304 3440 -336
WIRE 3536 -304 3536 -336
WIRE -288 -288 -288 -768
WIRE 1776 -288 -288 -288
WIRE 2272 -272 2096 -272
WIRE 2384 -272 2384 -464
WIRE 2384 -272 2272 -272
WIRE -256 -240 -256 -768
WIRE 1776 -240 -256 -240
WIRE 2272 -240 2176 -240
WIRE 3024 -240 3024 -464
WIRE 3024 -240 2272 -240
WIRE 2176 -224 2176 -240
WIRE 2176 -224 2096 -224
WIRE -208 -192 -208 -768
WIRE 1776 -192 -208 -192
WIRE 2176 -160 2096 -160
WIRE -176 -144 -176 -768
WIRE 1776 -144 -176 -144
WIRE 2176 -128 2176 -160
WIRE 2272 -128 2176 -128
WIRE 3040 -128 2272 -128
WIRE 2144 -112 2096 -112
WIRE -128 -96 -128 -768
WIRE 1776 -96 -128 -96
WIRE 2144 -96 2144 -112
WIRE 2272 -96 2144 -96
WIRE 2400 -96 2272 -96
WIRE -96 -48 -96 -768
WIRE 1776 -48 -96 -48
WIRE 2400 -16 2400 -96
WIRE 2816 -16 2736 -16
WIRE 2912 -16 2816 -16
WIRE 3040 -16 3040 -128
WIRE 3456 -16 3376 -16
WIRE 3552 -16 3456 -16
WIRE 160 32 160 -752
WIRE 1776 32 160 32
WIRE 2816 32 2816 -16
WIRE 3456 32 3456 -16
WIRE 2912 48 2912 -16
WIRE 3552 48 3552 -16
WIRE 2816 144 2816 112
WIRE 2912 144 2912 112
WIRE 3456 144 3456 112
WIRE 3552 144 3552 112
WIRE 1072 208 1072 -752
WIRE 1936 208 1936 64
WIRE 1936 208 1072 208
FLAG -288 -768 x0
FLAG -256 -768 /x0
FLAG -208 -768 x1
FLAG -176 -768 /x1
FLAG -128 -768 x2
FLAG -96 -768 /x2
FLAG 160 -752 rst
FLAG 2272 -272 y0
FLAG 2272 -240 /y0
FLAG 2272 -128 y1
FLAG 2272 -96 /y1
FLAG 1072 -752 clk
FLAG 1104 -752 /clear
FLAG 1136 -752 /preset
FLAG -896 -784 0
FLAG -704 -1024 VDD
FLAG 0 -1184 0
FLAG 192 -1424 VDD
FLAG -1296 -896 0
FLAG -1104 -1136 VDD
FLAG -1616 -1088 0
FLAG -1424 -1328 VDD
FLAG 640 -896 0
FLAG 832 -1136 VDD
FLAG 624 -1248 0
FLAG 816 -1488 VDD
FLAG 1392 -1680 VDD
FLAG 2816 144 0
FLAG 2912 144 0
FLAG 2544 -80 VDD
FLAG 3456 144 0
FLAG 3552 144 0
FLAG 3184 -80 VDD
FLAG 2800 -304 0
FLAG 2896 -304 0
FLAG 2528 -528 VDD
FLAG 3440 -304 0
FLAG 3536 -304 0
FLAG 3168 -528 VDD
FLAG 2736 -1248 VDD
FLAG 2736 -1024 0
SYMBOL voltage -896 -912 R0
WINDOW 123 0 0 Left 2
WINDOW 39 0 0 Left 2
SYMATTR InstName V1
SYMATTR Value PULSE(0 1 8n 10p 10p 32n 64n)
SYMBOL inverter -720 -960 R0
SYMATTR InstName X1
SYMBOL voltage 0 -1312 R0
WINDOW 123 0 0 Left 2
WINDOW 39 0 0 Left 2
SYMATTR InstName V2
SYMATTR Value PULSE(0 1 4n 10p 10p 4n 500n)
SYMBOL inverter 176 -1360 R0
SYMATTR InstName X2
SYMBOL Digital\\inv -336 -1024 R0
SYMATTR InstName A38
SYMBOL Digital\\inv -256 -1136 R0
SYMATTR InstName A39
SYMBOL Digital\\inv -160 -1200 R0
SYMATTR InstName A40
SYMBOL voltage -1296 -1024 R0
WINDOW 123 0 0 Left 2
WINDOW 39 0 0 Left 2
SYMATTR InstName V3
SYMATTR Value PULSE(0 1 8n 10p 10p 8n 16n)
SYMBOL inverter -1120 -1072 R0
SYMATTR InstName X3
SYMBOL voltage -1616 -1216 R0
WINDOW 123 0 0 Left 2
WINDOW 39 0 0 Left 2
SYMATTR InstName V4
SYMATTR Value PULSE(0 1 8n 10p 10p 16n 32n)
SYMBOL inverter -1440 -1264 R0
SYMATTR InstName X4
SYMBOL voltage 640 -1024 R0
WINDOW 123 0 0 Left 2
WINDOW 39 0 0 Left 2
SYMATTR InstName V5
SYMATTR Value PULSE(0 1 4n 10p 10p 3n 6n)
SYMBOL inverter 816 -1072 R0
SYMATTR InstName X5
SYMBOL voltage 624 -1376 R0
WINDOW 123 0 0 Left 2
WINDOW 39 0 0 Left 2
SYMATTR InstName V6
SYMATTR Value PULSE(0 1 0n 10p 10p 3n 500n)
SYMBOL inverter 800 -1424 R0
SYMATTR InstName X6
SYMBOL res 2800 16 R0
SYMATTR InstName R1
SYMATTR Value 100k
SYMBOL cap 2896 48 R0
SYMATTR InstName C1
SYMATTR Value 100f
SYMBOL inverter 2528 -16 R0
SYMATTR InstName X8
SYMBOL res 3440 16 R0
SYMATTR InstName R2
SYMATTR Value 100k
SYMBOL cap 3536 48 R0
SYMATTR InstName C2
SYMATTR Value 100f
SYMBOL inverter 3168 -16 R0
SYMATTR InstName X9
SYMBOL res 2784 -432 R0
SYMATTR InstName R3
SYMATTR Value 100k
SYMBOL cap 2880 -400 R0
SYMATTR InstName C3
SYMATTR Value 100f
SYMBOL inverter 2512 -464 R0
SYMATTR InstName X10
SYMBOL res 3424 -432 R0
SYMATTR InstName R4
SYMATTR Value 100k
SYMBOL cap 3520 -400 R0
SYMATTR InstName C4
SYMATTR Value 100f
SYMBOL inverter 3152 -464 R0
SYMATTR InstName X11
SYMBOL Digital\\inv 448 -1424 R0
SYMATTR InstName A41
SYMBOL voltage 2736 -1152 R0
WINDOW 123 0 0 Left 2
WINDOW 39 0 0 Left 2
SYMATTR InstName VDD1
SYMATTR Value 1
SYMBOL aut 1936 -176 R0
SYMATTR InstName X7
TEXT -1528 -1592 Left 2 !.tran 0 200n 0 1p
TEXT -1536 -1632 Left 2 !.include 90nm_bulk.txt
TEXT -1520 -1560 Left 2 !.include 74hct.lib
