Version 4
SHEET 1 3356 1244
WIRE -1600 -176 -1648 -176
WIRE 224 -176 224 -288
WIRE -1648 -112 -1648 -176
WIRE -144 -112 -224 -112
WIRE -48 -112 -144 -112
WIRE -1264 -64 -1264 -176
WIRE -144 -64 -144 -112
WIRE 224 -64 224 -96
WIRE -48 -48 -48 -112
WIRE -1648 0 -1648 -32
WIRE -688 48 -896 48
WIRE -560 48 -560 -112
WIRE -560 48 -688 48
WIRE -144 48 -144 16
WIRE -48 48 -48 16
WIRE -1088 112 -1088 -16
WIRE -896 144 -896 48
WIRE -896 144 -1008 144
WIRE -688 144 -800 144
WIRE -528 144 -688 144
WIRE -112 144 -192 144
WIRE -16 144 -112 144
WIRE -1760 160 -1808 160
WIRE -1312 160 -1360 160
WIRE -1248 160 -1312 160
WIRE -800 192 -800 144
WIRE -800 192 -1008 192
WIRE -112 192 -112 144
WIRE -16 208 -16 144
WIRE -1808 224 -1808 160
WIRE -1248 224 -1328 224
WIRE -832 240 -1008 240
WIRE -1328 288 -1328 224
WIRE -1264 288 -1264 -64
WIRE -1248 288 -1264 288
WIRE -112 304 -112 272
WIRE -16 304 -16 272
WIRE -832 320 -832 240
WIRE -688 320 -832 320
WIRE -560 320 -688 320
WIRE -1808 336 -1808 304
WIRE -1328 384 -1328 288
WIRE -1248 384 -1328 384
WIRE -560 400 -560 320
WIRE -144 400 -224 400
WIRE -48 400 -144 400
WIRE -144 448 -144 400
WIRE -1872 464 -1920 464
WIRE -1488 464 -1536 464
WIRE -1248 464 -1248 384
WIRE -1248 464 -1424 464
WIRE -48 464 -48 400
WIRE -1920 528 -1920 464
WIRE -144 560 -144 528
WIRE -48 560 -48 528
WIRE -1920 640 -1920 608
WIRE -1632 704 -1680 704
WIRE -1264 704 -1296 704
WIRE -1088 704 -1088 320
WIRE -1088 704 -1200 704
WIRE -1680 768 -1680 704
WIRE -1680 880 -1680 848
FLAG -688 48 red
FLAG -688 320 green
FLAG -688 144 yellow
FLAG -1808 336 0
FLAG -1616 96 VDD
FLAG -1264 -64 clk
FLAG -1648 0 0
FLAG -1456 -240 VDD
FLAG -1680 880 0
FLAG -1488 640 VDD
FLAG -1088 -16 0
FLAG -144 48 0
FLAG -48 48 0
FLAG -416 -176 VDD
FLAG -144 560 0
FLAG -48 560 0
FLAG -416 336 VDD
FLAG -112 304 0
FLAG -16 304 0
FLAG -384 80 VDD
FLAG 224 -288 VDD
FLAG 224 -64 0
FLAG -1920 640 0
FLAG -1728 400 VDD
FLAG -1312 160 force_red
FLAG -1328 288 force_green
SYMBOL voltage -1808 208 R0
WINDOW 123 0 0 Left 2
WINDOW 39 0 0 Left 2
SYMATTR InstName V1
SYMATTR Value PULSE(0 1 4n 10p 10p 20n 45n)
SYMBOL inverter -1632 160 R0
SYMATTR InstName X3
SYMBOL voltage -1648 -128 R0
WINDOW 123 0 0 Left 2
WINDOW 39 0 0 Left 2
SYMATTR InstName V2
SYMATTR Value PULSE(0 1 4n 10p 10p 3n 6n)
SYMBOL inverter -1472 -176 R0
SYMATTR InstName X4
SYMBOL voltage -1680 752 R0
WINDOW 123 0 0 Left 2
WINDOW 39 0 0 Left 2
SYMATTR InstName V3
SYMATTR Value PULSE(0 1 0n 10p 10p 3n 500n)
SYMBOL inverter -1504 704 R0
SYMATTR InstName X5
SYMBOL res -160 -80 R0
SYMATTR InstName R1
SYMATTR Value 100k
SYMBOL cap -64 -48 R0
SYMATTR InstName C1
SYMATTR Value 100f
SYMBOL inverter -432 -112 R0
SYMATTR InstName X6
SYMBOL res -160 432 R0
SYMATTR InstName R2
SYMATTR Value 100k
SYMBOL cap -64 464 R0
SYMATTR InstName C2
SYMATTR Value 100f
SYMBOL inverter -432 400 R0
SYMATTR InstName X7
SYMBOL res -128 176 R0
SYMATTR InstName R3
SYMATTR Value 100k
SYMBOL cap -32 208 R0
SYMATTR InstName C3
SYMATTR Value 100f
SYMBOL inverter -400 144 R0
SYMATTR InstName X8
SYMBOL voltage 224 -192 R0
WINDOW 123 0 0 Left 2
WINDOW 39 0 0 Left 2
SYMATTR InstName VDD1
SYMATTR Value 1
SYMBOL Digital\\inv -1424 96 R0
SYMATTR InstName A1
SYMBOL Digital\\inv -1264 640 R0
SYMATTR InstName A2
SYMBOL voltage -1920 512 R0
WINDOW 123 0 0 Left 2
WINDOW 39 0 0 Left 2
SYMATTR InstName V4
SYMATTR Value PULSE(0 1 14n 10p 10p 50n 500n)
SYMBOL inverter -1744 464 R0
SYMATTR InstName X9
SYMBOL Digital\\inv -1488 400 R0
SYMATTR InstName A26
SYMBOL flash -1088 208 R0
SYMATTR InstName X1
TEXT -1608 -720 Left 2 !.tran 0 100n 0 1p
TEXT -1616 -760 Left 2 !.include 90nm_bulk.txt
