Version 4
SHEET 1 1108 712
WIRE 320 -16 320 -96
WIRE 320 -16 224 -16
WIRE 944 64 -256 64
WIRE 224 80 224 -16
WIRE 240 80 224 80
WIRE -256 96 -256 64
WIRE -224 96 -256 96
WIRE -112 96 -160 96
WIRE -336 112 -368 112
WIRE -224 112 -336 112
WIRE -112 128 -112 96
WIRE -96 128 -112 128
WIRE 32 144 -32 144
WIRE 208 144 32 144
WIRE 896 144 832 144
WIRE 1024 144 896 144
WIRE 832 160 832 144
WIRE 832 160 400 160
WIRE -96 192 -112 192
WIRE 208 192 144 192
WIRE 848 224 400 224
WIRE -112 240 -112 192
WIRE -112 240 -160 240
WIRE 32 240 32 144
WIRE 208 240 32 240
WIRE 848 240 848 224
WIRE 944 240 944 64
WIRE 944 240 848 240
WIRE 1024 240 944 240
WIRE -336 256 -336 112
WIRE -304 256 -336 256
WIRE -224 256 -240 256
WIRE -224 272 -256 272
WIRE -256 320 -256 272
WIRE 896 320 896 144
WIRE 896 320 -256 320
WIRE 240 384 208 384
WIRE 304 384 304 304
FLAG 320 -96 PRESET
IOPIN 320 -96 In
FLAG 208 384 CLEAR
IOPIN 208 384 In
FLAG 144 192 CLK
IOPIN 144 192 In
FLAG -368 112 T
IOPIN -368 112 In
FLAG 1024 144 Q
IOPIN 1024 144 Out
FLAG 1024 240 /Q
IOPIN 1024 240 Out
SYMBOL Digital\\or -64 96 R0
SYMATTR InstName A2
SYMBOL Digital\\and -192 48 R0
SYMATTR InstName A3
SYMBOL Digital\\and -192 192 R0
SYMATTR InstName A4
SYMBOL Digital\\inv -304 192 R0
SYMATTR InstName A5
SYMBOL 74HCT\\74hct109 304 80 R0
SYMATTR InstName U1
SYMATTR SpiceLine VCC=1  SPEED=0.001  TRIPDT=1e-11
SYMBOL Digital\\inv 240 16 R0
SYMATTR InstName A1
SYMBOL Digital\\inv 240 320 R0
SYMATTR InstName A6
TEXT -432 -88 Left 2 !.include 74hct.lib
