Version 4
SHEET 1 1564 752
WIRE 544 0 432 0
WIRE 928 16 768 16
WIRE 544 32 368 32
WIRE -496 160 -640 160
WIRE -32 160 -160 160
WIRE 432 192 432 0
WIRE 544 192 432 192
WIRE 928 208 928 16
WIRE 928 208 768 208
WIRE -32 224 -32 160
WIRE 368 224 368 32
WIRE 544 224 368 224
WIRE 432 240 432 192
WIRE 432 240 192 240
WIRE 928 240 928 208
WIRE 1344 240 1264 240
WIRE 1440 240 1344 240
WIRE 1344 288 1344 240
WIRE -480 304 -528 304
WIRE -32 304 -32 256
WIRE -32 304 -144 304
WIRE 368 304 368 224
WIRE 368 304 -32 304
WIRE 1440 304 1440 240
WIRE -528 368 -528 304
WIRE 432 400 432 240
WIRE 528 400 432 400
WIRE 1344 400 1344 368
WIRE 1440 400 1440 368
WIRE 928 416 928 240
WIRE 928 416 752 416
WIRE 368 432 368 304
WIRE 528 432 368 432
WIRE -640 448 -640 160
WIRE 1040 448 1040 336
WIRE -528 480 -528 448
WIRE 1040 560 1040 528
WIRE -640 576 -640 528
WIRE 432 608 432 400
WIRE 528 608 432 608
WIRE 928 624 928 416
WIRE 928 624 752 624
WIRE 368 640 368 432
WIRE 528 640 368 640
FLAG 1040 336 VDD
FLAG 1040 560 0
FLAG -640 576 0
FLAG -528 480 0
FLAG 1344 400 0
FLAG 1440 400 0
FLAG -352 96 VDD
FLAG -336 240 VDD
FLAG 1072 176 VDD
FLAG 640 -80 VDD
FLAG 640 112 VDD
FLAG 624 320 VDD
FLAG 624 528 VDD
FLAG 64 144 VDD
SYMBOL xor 640 208 R0
SYMATTR InstName X1
SYMBOL voltage 1040 432 R0
WINDOW 123 0 0 Left 2
WINDOW 39 0 0 Left 2
SYMATTR InstName VDD1
SYMATTR Value 1
SYMBOL voltage -640 432 R0
WINDOW 123 0 0 Left 2
WINDOW 39 0 0 Left 2
SYMATTR InstName V2
SYMATTR Value PULSE(0 1 2n 10p 10p 2n 4n)
SYMBOL voltage -528 352 R0
WINDOW 123 0 0 Left 2
WINDOW 39 0 0 Left 2
SYMATTR InstName V1
SYMATTR Value PULSE(0 1 1n 10p 10p 2n 4n)
SYMBOL res 1328 272 R0
SYMATTR InstName R1
SYMATTR Value 100k
SYMBOL cap 1424 304 R0
SYMATTR InstName C1
SYMATTR Value 100f
SYMBOL inverter -368 160 R0
SYMATTR InstName X2
SYMBOL inverter 1056 240 R0
SYMATTR InstName X3
SYMBOL inverter -352 304 R0
SYMATTR InstName X4
SYMBOL xor 640 16 R0
SYMATTR InstName X5
SYMBOL xor 624 416 R0
SYMATTR InstName X6
SYMBOL xor 624 624 R0
SYMATTR InstName X7
SYMBOL xor 64 240 R0
SYMATTR InstName X8
TEXT -672 16 Left 2 !.tran 0 10n 0 1p
TEXT -680 -24 Left 2 !.include 90nm_bulk.txt
