Version 4
SHEET 1 1740 1524
WIRE 0 464 0 400
WIRE -704 592 -848 592
WIRE -240 592 -368 592
WIRE -112 592 -240 592
WIRE 240 592 112 592
WIRE 1040 592 240 592
WIRE 1456 592 1376 592
WIRE 1552 592 1456 592
WIRE 1456 640 1456 592
WIRE 1552 656 1552 592
WIRE -240 672 -352 672
WIRE -112 672 -240 672
WIRE 240 672 112 672
WIRE 528 672 240 672
WIRE 944 672 864 672
WIRE 1040 672 944 672
WIRE 944 720 944 672
WIRE -688 736 -736 736
WIRE -352 736 -352 672
WIRE 1040 736 1040 672
WIRE -112 752 -208 752
WIRE 240 752 112 752
WIRE 304 752 240 752
WIRE 1456 752 1456 720
WIRE 1552 752 1552 720
WIRE -736 800 -736 736
WIRE 1152 800 1152 688
WIRE -240 816 -352 816
WIRE -208 816 -208 752
WIRE -208 816 -240 816
WIRE 304 832 304 752
WIRE 352 832 304 832
WIRE 768 832 688 832
WIRE 864 832 768 832
WIRE 944 832 944 800
WIRE 1040 832 1040 800
WIRE -848 864 -848 592
WIRE 768 880 768 832
WIRE 864 896 864 832
WIRE -736 912 -736 880
WIRE 1152 912 1152 880
WIRE -848 992 -848 944
WIRE 768 992 768 960
WIRE 864 992 864 960
WIRE -688 1056 -736 1056
WIRE -352 1056 -352 816
WIRE -736 1120 -736 1056
WIRE -736 1232 -736 1200
FLAG 0 400 VDD
FLAG 1152 688 VDD
FLAG 1152 912 0
FLAG -848 992 0
FLAG -736 912 0
FLAG 1456 752 0
FLAG 1552 752 0
FLAG -560 528 VDD
FLAG -544 672 VDD
FLAG 1184 528 VDD
FLAG -736 1232 0
FLAG -544 992 VDD
FLAG 944 832 0
FLAG 1040 832 0
FLAG 672 608 VDD
FLAG 768 992 0
FLAG 864 992 0
FLAG 496 768 VDD
FLAG -240 592 IN0
FLAG -240 672 IN1
FLAG -240 816 IN2
FLAG 240 592 OUT0
FLAG 240 672 OUT1
FLAG 240 752 OUT2
SYMBOL voltage 1152 784 R0
WINDOW 123 0 0 Left 2
WINDOW 39 0 0 Left 2
SYMATTR InstName VDD
SYMATTR Value 1
SYMBOL voltage -848 848 R0
WINDOW 123 0 0 Left 2
WINDOW 39 0 0 Left 2
SYMATTR InstName V2
SYMATTR Value PULSE(0 1 4n 10p 10p 2n 4n)
SYMBOL voltage -736 784 R0
WINDOW 123 0 0 Left 2
WINDOW 39 0 0 Left 2
SYMATTR InstName V1
SYMATTR Value PULSE(0 1 1n 10p 10p 2n 4n)
SYMBOL res 1440 624 R0
SYMATTR InstName R1
SYMATTR Value 100k
SYMBOL cap 1536 656 R0
SYMATTR InstName C1
SYMATTR Value 100f
SYMBOL inverter -576 592 R0
SYMATTR InstName X2
SYMBOL inverter 1168 592 R0
SYMATTR InstName X3
SYMBOL inverter -560 736 R0
SYMATTR InstName X4
SYMBOL gray 0 672 R0
SYMATTR InstName X5
SYMBOL inverter -560 1056 R0
SYMATTR InstName X1
SYMBOL voltage -736 1104 R0
WINDOW 123 0 0 Left 2
WINDOW 39 0 0 Left 2
SYMATTR InstName V3
SYMATTR Value PULSE(0 1 2n 10p 10p 2n 4n)
SYMBOL res 928 704 R0
SYMATTR InstName R2
SYMATTR Value 100k
SYMBOL cap 1024 736 R0
SYMATTR InstName C2
SYMATTR Value 100f
SYMBOL inverter 656 672 R0
SYMATTR InstName X6
SYMBOL res 752 864 R0
SYMATTR InstName R3
SYMATTR Value 100k
SYMBOL cap 848 896 R0
SYMATTR InstName C3
SYMATTR Value 100f
SYMBOL inverter 480 832 R0
SYMATTR InstName X7
TEXT -880 448 Left 2 !.tran 0 12n 0 1p
TEXT -872 416 Left 2 !.include 90nm_bulk.txt
